CC(=O)O
 OpenBabel07182308452D

  5  4  0  0  1  0  0  0  0  0999 V2000
    0.6937   -1.6851    0.0000 C   0  0  0  0  0  0  0  0  0  0  0  0
    1.4075   -2.0816    0.0000 C   0  0  0  0  0  0  0  0  0  0  0  0
    0.6937   -0.8525    0.0000 O   0  0  0  0  0  0  0  0  0  0  0  0
   -0.0198   -2.0816    0.0000 O   0  0  0  0  0  0  0  0  0  0  0  0
   -0.8235   -1.5999    0.0000 H   0  0  0  0  0  0  0  0  0  0  0  0
  2  1  1  0  0  0  0
  3  1  2  0  0  0  0
  4  1  1  0  0  0  0
  4  5  1  0  0  0  0
M  END
$$$$
CC(C)C
 OpenBabel07182308452D

  4  3  0  0  1  0  0  0  0  0999 V2000
    2.1211   -1.6851    0.0000 C   0  0  0  0  0  0  0  0  0  0  0  0
    2.1211   -0.8525    0.0000 C   0  0  0  0  0  0  0  0  0  0  0  0
    2.8349   -0.4558    0.0000 C   0  0  0  0  0  0  0  0  0  0  0  0
    1.4075   -0.4558    0.0000 C   0  0  0  0  0  0  0  0  0  0  0  0
  2  1  1  0  0  0  0
  3  2  1  0  0  0  0
  4  2  1  0  0  0  0
M  END
$$$$
CC(=O)N
 OpenBabel07182308452D

  5  4  0  0  1  0  0  0  0  0999 V2000
    1.4075   -2.9142    0.0000 N   0  0  0  0  0  0  0  0  0  0  0  0
    0.6937   -3.3305    0.0000 C   0  0  0  0  0  0  0  0  0  0  0  0
   -0.0198   -2.9142    0.0000 O   0  0  0  0  0  0  0  0  0  0  0  0
    0.6937   -4.1432    0.0000 C   0  0  0  0  0  0  0  0  0  0  0  0
    2.2612   -3.4046    0.0000 H   0  0  0  0  0  0  0  0  0  0  0  0
  1  5  1  0  0  0  0
  2  1  1  0  0  0  0
  3  2  2  0  0  0  0
  4  2  1  0  0  0  0
M  END
$$$$
Cc1ccc(cc1)O
 OpenBabel07182308452D

  9  9  0  0  1  0  0  0  0  0999 V2000
   -0.0198   -4.5596    0.0000 C   0  0  0  0  0  0  0  0  0  0  0  0
   -0.7334   -4.1432    0.0000 C   0  0  0  0  0  0  0  0  0  0  0  0
   -1.4472   -4.5596    0.0000 C   0  0  0  0  0  0  0  0  0  0  0  0
   -0.7334   -3.3305    0.0000 C   0  0  0  0  0  0  0  0  0  0  0  0
   -1.4472   -2.9142    0.0000 C   0  0  0  0  0  0  0  0  0  0  0  0
   -2.1410   -3.3305    0.0000 C   0  0  0  0  0  0  0  0  0  0  0  0
   -2.1410   -4.1432    0.0000 C   0  0  0  0  0  0  0  0  0  0  0  0
   -2.8547   -2.9142    0.0000 O   0  0  0  0  0  0  0  0  0  0  0  0
   -2.8505   -1.9772    0.0000 H   0  0  0  0  0  0  0  0  0  0  0  0
  2  1  1  0  0  0  0
  3  2  2  0  0  0  0
  4  2  1  0  0  0  0
  5  4  2  0  0  0  0
  6  5  1  0  0  0  0
  7  3  1  0  0  0  0
  7  6  2  0  0  0  0
  8  6  1  0  0  0  0
  8  9  1  0  0  0  0
M  END
$$$$
C
 OpenBabel07182308452D

  1  0  0  0  1  0  0  0  0  0999 V2000
    2.8349   -5.3724    0.0000 C   0  0  0  0  0  0  0  0  0  0  0  0
M  END
$$$$
NC=O
 OpenBabel07182308452D

  4  3  0  0  1  0  0  0  0  0999 V2000
    4.9560   -3.3305    0.0000 N   0  0  0  0  0  0  0  0  0  0  0  0
    4.2424   -2.9142    0.0000 C   0  0  0  0  0  0  0  0  0  0  0  0
    3.5485   -3.3305    0.0000 O   0  0  0  0  0  0  0  0  0  0  0  0
    5.8097   -2.8402    0.0000 H   0  0  0  0  0  0  0  0  0  0  0  0
  1  4  1  0  0  0  0
  2  1  1  0  0  0  0
  3  2  2  0  0  0  0
M  END
$$$$
C1CCCN1
 OpenBabel07182308452D

  5  5  0  0  1  0  0  0  0  0999 V2000
    4.2424   -2.0816    0.0000 C   0  0  0  0  0  0  0  0  0  0  0  0
    4.9164   -1.6058    0.0000 N   0  0  0  0  0  0  0  0  0  0  0  0
    4.6587   -0.8326    0.0000 C   0  0  0  0  0  0  0  0  0  0  0  0
    3.8459   -0.8326    0.0000 C   0  0  0  0  0  0  0  0  0  0  0  0
    3.5882   -1.6058    0.0000 C   0  0  0  0  0  0  0  0  0  0  0  0
  1  2  1  0  0  0  0
  3  2  1  0  0  0  0
  4  3  1  0  0  0  0
  5  1  1  0  0  0  0
  5  4  1  0  0  0  0
M  END
$$$$
CC=O
 OpenBabel07182308452D

  3  2  0  0  1  0  0  0  0  0999 V2000
    5.6500   -2.0022    0.0000 C   0  0  0  0  0  0  0  0  0  0  0  0
    6.3635   -1.6058    0.0000 C   0  0  0  0  0  0  0  0  0  0  0  0
    5.6500   -2.8349    0.0000 O   0  0  0  0  0  0  0  0  0  0  0  0
  2  1  1  0  0  0  0
  3  1  2  0  0  0  0
M  END
$$$$
CC
 OpenBabel07182308452D

  2  1  0  0  1  0  0  0  0  0999 V2000
    7.0574   -2.0022    0.0000 C   0  0  0  0  0  0  0  0  0  0  0  0
    7.0574   -2.8349    0.0000 C   0  0  0  0  0  0  0  0  0  0  0  0
  1  2  1  0  0  0  0
M  END
$$$$
Cc1ccccc1
 OpenBabel07182308452D

  7  7  0  0  1  0  0  0  0  0999 V2000
    8.4849    4.5595    0.0000 C   0  0  0  0  0  0  0  0  0  0  0  0
    8.4849    5.3923    0.0000 C   0  0  0  0  0  0  0  0  0  0  0  0
    9.1985    5.7887    0.0000 C   0  0  0  0  0  0  0  0  0  0  0  0
    7.7710    5.7887    0.0000 C   0  0  0  0  0  0  0  0  0  0  0  0
    7.7710    6.6213    0.0000 C   0  0  0  0  0  0  0  0  0  0  0  0
    9.1985    6.6213    0.0000 C   0  0  0  0  0  0  0  0  0  0  0  0
    8.4849    7.0178    0.0000 C   0  0  0  0  0  0  0  0  0  0  0  0
  2  1  1  0  0  0  0
  3  2  2  0  0  0  0
  4  2  1  0  0  0  0
  5  4  2  0  0  0  0
  6  3  1  0  0  0  0
  7  5  1  0  0  0  0
  7  6  2  0  0  0  0
M  END
$$$$
CCN
 OpenBabel07182308452D

  4  3  0  0  1  0  0  0  0  0999 V2000
    4.9362    4.1432    0.0000 N   0  0  0  0  0  0  0  0  0  0  0  0
    5.6500    4.5595    0.0000 C   0  0  0  0  0  0  0  0  0  0  0  0
    5.6500    5.3923    0.0000 C   0  0  0  0  0  0  0  0  0  0  0  0
    4.9362    3.1587    0.0000 H   0  0  0  0  0  0  0  0  0  0  0  0
  1  4  1  0  0  0  0
  2  1  1  0  0  0  0
  3  2  1  0  0  0  0
M  END
$$$$
OC=O
 OpenBabel07182308452D

  4  3  0  0  1  0  0  0  0  0999 V2000
    6.3635    6.6213    0.0000 O   0  0  0  0  0  0  0  0  0  0  0  0
    7.0574    5.3923    0.0000 O   0  0  0  0  0  0  0  0  0  0  0  0
    6.3635    5.7887    0.0000 C   0  0  0  0  0  0  0  0  0  0  0  0
    7.1750    7.0898    0.0000 H   0  0  0  0  0  0  0  0  0  0  0  0
  1  4  1  0  0  0  0
  3  1  1  0  0  0  0
  3  2  2  0  0  0  0
M  END
$$$$
NC(=N)N
 OpenBabel07182308452D

  8  7  0  0  1  0  0  0  0  0999 V2000
   -2.1410   -0.7334    0.0000 C   0  0  0  0  0  0  0  0  0  0  0  0
   -1.4273   -0.3172    0.0000 N   0  0  0  0  0  0  0  0  0  0  0  0
   -2.1410   -1.5463    0.0000 N   0  0  0  0  0  0  0  0  0  0  0  0
   -2.8547   -0.3172    0.0000 N   0  0  0  0  0  0  0  0  0  0  0  0
   -0.5726   -0.8057    0.0000 H   0  0  0  0  0  0  0  0  0  0  0  0
   -1.2873   -2.0367    0.0000 H   0  0  0  0  0  0  0  0  0  0  0  0
   -2.8504    0.6673    0.0000 H   0  0  0  0  0  0  0  0  0  0  0  0
   -3.7094   -0.8057    0.0000 H   0  0  0  0  0  0  0  0  0  0  0  0
  2  1  2  0  0  0  0
  2  5  1  0  0  0  0
  3  1  1  0  0  0  0
  3  6  1  0  0  0  0
  4  1  1  0  0  0  0
  4  7  1  0  0  0  0
  4  8  1  0  0  0  0
M  END
$$$$
CCC
 OpenBabel07182308452D

  3  2  0  0  1  0  0  0  0  0999 V2000
   -2.8547   -1.9626    0.0000 C   0  0  0  0  0  0  0  0  0  0  0  0
   -4.2821   -1.9626    0.0000 C   0  0  0  0  0  0  0  0  0  0  0  0
   -3.5683   -1.5463    0.0000 C   0  0  0  0  0  0  0  0  0  0  0  0
  3  1  1  0  0  0  0
  3  2  1  0  0  0  0
M  END
$$$$
C=O
 OpenBabel07182308452D

  2  1  0  0  1  0  0  0  0  0999 V2000
   -7.0574   -1.8833    0.0000 C   0  0  0  0  0  0  0  0  0  0  0  0
   -6.3636   -1.4669    0.0000 O   0  0  0  0  0  0  0  0  0  0  0  0
  2  1  2  0  0  0  0
M  END
$$$$
c1ccccc1
 OpenBabel07182308452D

  6  6  0  0  1  0  0  0  0  0999 V2000
   -8.4848   -0.2378    0.0000 C   0  0  0  0  0  0  0  0  0  0  0  0
   -8.4848    0.5749    0.0000 C   0  0  0  0  0  0  0  0  0  0  0  0
   -9.1986   -0.6542    0.0000 C   0  0  0  0  0  0  0  0  0  0  0  0
   -9.9121   -0.2378    0.0000 C   0  0  0  0  0  0  0  0  0  0  0  0
   -9.1986    0.9911    0.0000 C   0  0  0  0  0  0  0  0  0  0  0  0
   -9.9121    0.5749    0.0000 C   0  0  0  0  0  0  0  0  0  0  0  0
  2  1  2  0  0  0  0
  3  1  1  0  0  0  0
  4  3  2  0  0  0  0
  5  2  1  0  0  0  0
  6  4  1  0  0  0  0
  6  5  2  0  0  0  0
M  END
$$$$
CO
 OpenBabel07182308452D

  3  2  0  0  1  0  0  0  0  0999 V2000
   -2.8232    0.6665    0.0000 C   0  0  0  0  0  0  0  0  0  0  0  0
   -2.1052    1.0766    0.0000 O   0  0  0  0  0  0  0  0  0  0  0  0
   -1.2674    0.5877    0.0000 H   0  0  0  0  0  0  0  0  0  0  0  0
  1  2  1  0  0  0  0
  2  3  1  0  0  0  0
M  END
$$$$
Cc1c[nH]c2c1cccc2
 OpenBabel07182308452D

 11 12  0  0  1  0  0  0  0  0999 V2000
   -4.9633   -1.3982    0.0000 C   0  0  0  0  0  0  0  0  0  0  0  0
   -4.4721   -2.0767    0.0000 C   0  0  0  0  0  0  0  0  0  0  0  0
   -4.8925   -2.7856    0.0000 C   0  0  0  0  0  0  0  0  0  0  0  0
   -4.3485   -3.4033    0.0000 N   0  0  0  0  0  0  0  0  0  0  0  0
   -3.5909   -3.0764    0.0000 C   0  0  0  0  0  0  0  0  0  0  0  0
   -3.6664   -2.2569    0.0000 C   0  0  0  0  0  0  0  0  0  0  0  0
   -2.9962   -1.7794    0.0000 C   0  0  0  0  0  0  0  0  0  0  0  0
   -2.2462   -2.1233    0.0000 C   0  0  0  0  0  0  0  0  0  0  0  0
   -2.1665   -2.9445    0.0000 C   0  0  0  0  0  0  0  0  0  0  0  0
   -2.8410   -3.4202    0.0000 C   0  0  0  0  0  0  0  0  0  0  0  0
   -4.5640   -4.3639    0.0000 H   0  0  0  0  0  0  0  0  0  0  0  0
  1  2  1  0  0  0  0
  2  6  1  0  0  0  0
  3  2  2  0  0  0  0
  4  3  1  0  0  0  0
  4 11  1  0  0  0  0
  5  4  1  0  0  0  0
  6  5  2  0  0  0  0
  6  7  1  0  0  0  0
  7  8  2  0  0  0  0
  8  9  1  0  0  0  0
  9 10  2  0  0  0  0
 10  5  1  0  0  0  0
M  END
$$$$
Cc1c[nH]cn1
 OpenBabel07182308452D

  7  7  0  0  1  0  0  0  0  0999 V2000
   -7.1035    0.6665    0.0000 C   0  0  0  0  0  0  0  0  0  0  0  0
   -7.8215    1.0766    0.0000 C   0  0  0  0  0  0  0  0  0  0  0  0
   -7.9081    1.8961    0.0000 C   0  0  0  0  0  0  0  0  0  0  0  0
   -8.7111    2.0681    0.0000 N   0  0  0  0  0  0  0  0  0  0  0  0
   -9.1259    1.3546    0.0000 C   0  0  0  0  0  0  0  0  0  0  0  0
   -8.5734    0.7418    0.0000 N   0  0  0  0  0  0  0  0  0  0  0  0
   -9.1095    2.9684    0.0000 H   0  0  0  0  0  0  0  0  0  0  0  0
  1  2  1  0  0  0  0
  2  3  2  0  0  0  0
  3  4  1  0  0  0  0
  4  5  1  0  0  0  0
  4  7  1  0  0  0  0
  5  6  2  0  0  0  0
  6  2  1  0  0  0  0
M  END
$$$$
O=C1CCCN1
 OpenBabel07182308452D

  7  7  0  0  1  0  0  0  0  0999 V2000
   -8.6216   -2.6277    0.0000 N   0  0  0  0  0  0  0  0  0  0  0  0
   -8.5350   -1.8082    0.0000 C   0  0  0  0  0  0  0  0  0  0  0  0
   -9.2868   -1.4733    0.0000 C   0  0  0  0  0  0  0  0  0  0  0  0
   -9.8393   -2.0864    0.0000 C   0  0  0  0  0  0  0  0  0  0  0  0
   -9.4245   -2.7997    0.0000 C   0  0  0  0  0  0  0  0  0  0  0  0
   -9.7640   -3.5516    0.0000 O   0  0  0  0  0  0  0  0  0  0  0  0
   -7.8896   -3.2861    0.0000 H   0  0  0  0  0  0  0  0  0  0  0  0
  1  2  1  0  0  0  0
  1  7  1  0  0  0  0
  2  3  1  0  0  0  0
  3  4  1  0  0  0  0
  4  5  1  0  0  0  0
  5  1  1  0  0  0  0
  5  6  2  0  0  0  0
M  END
$$$$
NN
 OpenBabel07182308452D
Created with ChemWriter - http://chemwriter.com
  4  3  0  0  1  0  0  0  0  0999 V2000
   15.2089   -3.2393    0.0000 N   0  0  0  0  0  0  0  0  0  0  0  0
   15.6226   -2.5255    0.0000 N   0  0  0  0  0  0  0  0  0  0  0  0
   15.6997   -4.0928    0.0000 H   0  0  0  0  0  0  0  0  0  0  0  0
   15.1318   -1.6721    0.0000 H   0  0  0  0  0  0  0  0  0  0  0  0
  1  2  1  0  0  0  0
  1  3  1  0  0  0  0
  2  4  1  0  0  0  0
M  END
$$$$
CN=C(N)N
 OpenBabel07182308452D
Created with ChemWriter - http://chemwriter.com
  9  8  0  0  1  0  0  0  0  0999 V2000
   12.3806   -6.3890    0.0000 N   0  0  0  0  0  0  0  0  0  0  0  0
   11.3170   -7.3433    0.0000 N   0  0  0  0  0  0  0  0  0  0  0  0
   12.6753   -7.7873    0.0000 N   0  0  0  0  0  0  0  0  0  0  0  0
   11.8295   -5.7750    0.0000 C   0  0  0  0  0  0  0  0  0  0  0  0
   12.1242   -7.1732    0.0000 C   0  0  0  0  0  0  0  0  0  0  0  0
   10.6595   -6.6105    0.0000 H   0  0  0  0  0  0  0  0  0  0  0  0
   11.0111   -8.2791    0.0000 H   0  0  0  0  0  0  0  0  0  0  0  0
   12.3695   -8.7231    0.0000 H   0  0  0  0  0  0  0  0  0  0  0  0
   13.6386   -7.5842    0.0000 H   0  0  0  0  0  0  0  0  0  0  0  0
  1  4  1  0  0  0  0
  1  5  2  0  0  0  0
  2  5  1  0  0  0  0
  2  6  1  0  0  0  0
  2  7  1  0  0  0  0
  3  5  1  0  0  0  0
  3  8  1  0  0  0  0
  3  9  1  0  0  0  0
M  END
$$$$
c1ncc[nH]1
 OpenBabel07182308452D
Created with ChemWriter - http://chemwriter.com
  6  6  0  0  1  0  0  0  0  0999 V2000
    6.7335    6.3823    0.0000 N   0  0  0  0  0  0  0  0  0  0  0  0
    5.9507    7.4636    0.0000 N   0  0  0  0  0  0  0  0  0  0  0  0
    5.9484    6.1287    0.0000 C   0  0  0  0  0  0  0  0  0  0  0  0
    5.4646    6.7970    0.0000 C   0  0  0  0  0  0  0  0  0  0  0  0
    6.7349    7.2073    0.0000 C   0  0  0  0  0  0  0  0  0  0  0  0
    7.5290    5.8023    0.0000 H   0  0  0  0  0  0  0  0  0  0  0  0
  1  3  1  0  0  0  0
  1  5  1  0  0  0  0
  1  6  1  0  0  0  0
  2  4  1  0  0  0  0
  2  5  2  0  0  0  0
  3  4  2  0  0  0  0
M  END
$$$$
CN
 OpenBabel07182308452D
Created with ChemWriter - http://chemwriter.com
  3  2  0  0  1  0  0  0  0  0999 V2000
    9.2926    0.2619    0.0000 N   0  0  0  0  0  0  0  0  0  0  0  0
    9.8436   -0.3521    0.0000 C   0  0  0  0  0  0  0  0  0  0  0  0
    8.3293    0.0588    0.0000 H   0  0  0  0  0  0  0  0  0  0  0  0
  1  3  1  0  0  0  0
  2  1  1  0  0  0  0
M  END
$$$$
c1ccc2c(c1)[nH]cc2
 OpenBabel07182308452D
Created with ChemWriter - http://chemwriter.com
 10 11  0  0  1  0  0  0  0  0999 V2000
    3.8596    0.7098    0.0000 N   0  0  0  0  0  0  0  0  0  0  0  0
    3.8596    2.0376    0.0000 C   0  0  0  0  0  0  0  0  0  0  0  0
    3.0790    1.7862    0.0000 C   0  0  0  0  0  0  0  0  0  0  0  0
    4.3411    1.3737    0.0000 C   0  0  0  0  0  0  0  0  0  0  0  0
    3.0790    0.9612    0.0000 C   0  0  0  0  0  0  0  0  0  0  0  0
    2.3645    2.1987    0.0000 C   0  0  0  0  0  0  0  0  0  0  0  0
    2.3645    0.5487    0.0000 C   0  0  0  0  0  0  0  0  0  0  0  0
    1.6500    1.7862    0.0000 C   0  0  0  0  0  0  0  0  0  0  0  0
    1.6500    0.9612    0.0000 C   0  0  0  0  0  0  0  0  0  0  0  0
    4.1654   -0.2260    0.0000 H   0  0  0  0  0  0  0  0  0  0  0  0
  1  4  1  0  0  0  0
  1  5  1  0  0  0  0
  1 10  1  0  0  0  0
  2  3  1  0  0  0  0
  2  4  2  0  0  0  0
  3  5  1  0  0  0  0
  3  6  2  0  0  0  0
  5  7  2  0  0  0  0
  6  8  1  0  0  0  0
  7  9  1  0  0  0  0
  8  9  2  0  0  0  0
M  END
$$$$
Oc1ccccc1
 OpenBabel07182308452D
Created with ChemWriter - http://chemwriter.com
  8  8  0  0  1  0  0  0  0  0999 V2000
   12.4834    3.1249    0.0000 O   0  0  0  0  0  0  0  0  0  0  0  0
   10.0615    2.6145    0.0000 C   0  0  0  0  0  0  0  0  0  0  0  0
   10.3178    3.3987    0.0000 C   0  0  0  0  0  0  0  0  0  0  0  0
   10.6125    2.0005    0.0000 C   0  0  0  0  0  0  0  0  0  0  0  0
   11.1251    3.5688    0.0000 C   0  0  0  0  0  0  0  0  0  0  0  0
   11.4198    2.1706    0.0000 C   0  0  0  0  0  0  0  0  0  0  0  0
   11.6761    2.9548    0.0000 C   0  0  0  0  0  0  0  0  0  0  0  0
   13.1091    2.4275    0.0000 H   0  0  0  0  0  0  0  0  0  0  0  0
  1  7  1  0  0  0  0
  1  8  1  0  0  0  0
  2  3  2  0  0  0  0
  2  4  1  0  0  0  0
  3  5  1  0  0  0  0
  4  6  2  0  0  0  0
  5  7  2  0  0  0  0
  6  7  1  0  0  0  0
M  END
$$$$
CCO
 OpenBabel07182308452D

  4  3  0  0  0  0  0  0  0  0999 V2000
   14.9743    1.0475    0.0000 C   0  0  0  0  0  0  0  0  0  0  0  0
   15.6879    0.6344    0.0000 C   0  0  0  0  0  0  0  0  0  0  0  0
   16.4025    1.0458    0.0000 O   0  0  0  0  0  0  0  0  0  0  0  0
   17.2419    0.5598    0.0000 H   0  0  0  0  0  0  0  0  0  0  0  0
  1  2  1  0  0  0  0
  2  3  1  0  0  0  0
  3  4  1  0  0  0  0
M  END
$$$$
O=C1CNC(=O)[C@H](C)NC(=O)CCSSCCNC(=O)[C@@H](NC(=O)[C@@H](N1)C)C
 OpenBabel07182308452D

 33 33  0  0  0  0  0  0  0  0999 V2000
    0.3146   -1.7976    0.0000 C   0  0  0  0  0  0  0  0  0  0  0  0
    1.0337   -2.2021    0.0000 N   0  0  0  0  0  0  0  0  0  0  0  0
    1.7078   -1.7976    0.0000 C   0  0  0  0  0  0  0  0  0  0  0  0
    2.4269   -2.2021    0.0000 C   0  0  1  0  0  0  0  0  0  0  0  0
    3.1460   -1.7976    0.0000 N   0  0  0  0  0  0  0  0  0  0  0  0
    0.3146   -0.9887    0.0000 C   0  0  0  0  0  0  0  0  0  0  0  0
   -0.4044   -0.5842    0.0000 S   0  0  0  0  0  0  0  0  0  0  0  0
   -0.4044    0.2246    0.0000 S   0  0  0  0  0  0  0  0  0  0  0  0
    1.7078   -0.9887    0.0000 O   0  0  0  0  0  0  0  0  0  0  0  0
    2.4269   -3.0560    0.0000 C   0  0  0  0  0  0  0  0  0  0  0  0
    3.1460   -0.9887    0.0000 C   0  0  0  0  0  0  0  0  0  0  0  0
    3.8650   -0.5842    0.0000 C   0  0  2  0  0  0  0  0  0  0  0  0
    2.4269   -0.5842    0.0000 O   0  0  0  0  0  0  0  0  0  0  0  0
    4.5840   -0.9887    0.0000 C   0  0  0  0  0  0  0  0  0  0  0  0
    3.8650    0.2246    0.0000 N   0  0  0  0  0  0  0  0  0  0  0  0
    3.1460    1.4831    0.0000 C   0  0  0  0  0  0  0  0  0  0  0  0
    3.1460    0.6291    0.0000 C   0  0  0  0  0  0  0  0  0  0  0  0
    0.3146    1.4831    0.0000 N   0  0  0  0  0  0  0  0  0  0  0  0
   -0.4044    1.8874    0.0000 C   0  0  0  0  0  0  0  0  0  0  0  0
   -1.1234    1.4831    0.0000 C   0  0  0  0  0  0  0  0  0  0  0  0
   -1.1234    0.6291    0.0000 C   0  0  0  0  0  0  0  0  0  0  0  0
    1.7078    1.4831    0.0000 C   0  0  0  0  0  0  0  0  0  0  0  0
    1.7078    0.6291    0.0000 O   0  0  0  0  0  0  0  0  0  0  0  0
    1.0337    1.8874    0.0000 C   0  0  2  0  0  0  0  0  0  0  0  0
    2.4269    1.8874    0.0000 N   0  0  0  0  0  0  0  0  0  0  0  0
    2.4269    0.2246    0.0000 O   0  0  0  0  0  0  0  0  0  0  0  0
    1.0337    2.6964    0.0000 C   0  0  0  0  0  0  0  0  0  0  0  0
   -0.4044    2.6964    0.0000 O   0  0  0  0  0  0  0  0  0  0  0  0
    1.0475   -3.1865    0.0000 H   0  0  0  0  0  0  0  0  0  0  0  0
    3.9958   -2.2946    0.0000 H   0  0  0  0  0  0  0  0  0  0  0  0
    4.7148    0.7216    0.0000 H   0  0  0  0  0  0  0  0  0  0  0  0
    0.3146    0.4986    0.0000 H   0  0  0  0  0  0  0  0  0  0  0  0
    2.4269    2.8719    0.0000 H   0  0  0  0  0  0  0  0  0  0  0  0
  2  1  1  0  0  0  0
  2 29  1  0  0  0  0
  3  2  1  0  0  0  0
  4  3  1  0  0  0  0
  4 10  1  1  0  0  0
  5  4  1  0  0  0  0
  5 30  1  0  0  0  0
  6  1  1  0  0  0  0
  7  6  1  0  0  0  0
  8  7  1  0  0  0  0
  9  3  2  0  0  0  0
 11  5  1  0  0  0  0
 12 11  1  0  0  0  0
 12 14  1  1  0  0  0
 13 11  2  0  0  0  0
 15 12  1  0  0  0  0
 15 31  1  0  0  0  0
 17 15  1  0  0  0  0
 17 16  1  0  0  0  0
 18 32  1  0  0  0  0
 19 18  1  0  0  0  0
 20 19  1  0  0  0  0
 21  8  1  0  0  0  0
 21 20  1  0  0  0  0
 23 22  2  0  0  0  0
 24 18  1  0  0  0  0
 24 22  1  0  0  0  0
 24 27  1  1  0  0  0
 25 16  1  0  0  0  0
 25 22  1  0  0  0  0
 25 33  1  0  0  0  0
 26 17  2  0  0  0  0
 28 19  2  0  0  0  0
M  END
$$$$
Cc1ccc2c(c1)cccc2
 OpenBabel07182308452D

 11 12  0  0  0  0  0  0  0  0999 V2000
   -9.9053    2.0518    0.0000 C   0  0  0  0  0  0  0  0  0  0  0  0
   -9.1977    2.4763    0.0000 C   0  0  0  0  0  0  0  0  0  0  0  0
  -10.6126    2.4763    0.0000 C   0  0  0  0  0  0  0  0  0  0  0  0
   -9.1977    3.3252    0.0000 C   0  0  0  0  0  0  0  0  0  0  0  0
  -10.6126    3.3252    0.0000 C   0  0  0  0  0  0  0  0  0  0  0  0
   -9.9053    3.7498    0.0000 C   0  0  0  0  0  0  0  0  0  0  0  0
   -9.9053    1.2735    0.0000 C   0  0  0  0  0  0  0  0  0  0  0  0
   -9.1977    0.8489    0.0000 C   0  0  0  0  0  0  0  0  0  0  0  0
   -8.4901    2.0518    0.0000 C   0  0  0  0  0  0  0  0  0  0  0  0
   -8.4901    1.2735    0.0000 C   0  0  0  0  0  0  0  0  0  0  0  0
   -9.1977    0.0708    0.0000 C   0  0  0  0  0  0  0  0  0  0  0  0
  2  1  1  0  0  0  0
  3  1  2  0  0  0  0
  4  2  2  0  0  0  0
  5  3  1  0  0  0  0
  6  4  1  0  0  0  0
  6  5  2  0  0  0  0
  7  1  1  0  0  0  0
  8  7  2  0  0  0  0
  9  2  1  0  0  0  0
 10  8  1  0  0  0  0
 10  9  2  0  0  0  0
 11  8  1  0  0  0  0
M  END
$$$$
Clc1ccccc1
 OpenBabel07182308452D

  7  7  0  0  0  0  0  0  0  0999 V2000
   -5.6601    1.2735    0.0000 C   0  0  0  0  0  0  0  0  0  0  0  0
   -4.9526    0.8489    0.0000 C   0  0  0  0  0  0  0  0  0  0  0  0
   -5.6601    2.0518    0.0000 C   0  0  0  0  0  0  0  0  0  0  0  0
   -4.9526    2.4763    0.0000 C   0  0  0  0  0  0  0  0  0  0  0  0
   -4.1743    1.2735    0.0000 C   0  0  0  0  0  0  0  0  0  0  0  0
   -4.1743    2.0518    0.0000 C   0  0  0  0  0  0  0  0  0  0  0  0
   -3.5375    2.4763    0.0000 Cl  0  0  0  0  0  0  0  0  0  0  0  0
  2  1  1  0  0  0  0
  3  1  2  0  0  0  0
  4  3  1  0  0  0  0
  5  2  2  0  0  0  0
  6  4  2  0  0  0  0
  6  5  1  0  0  0  0
  7  6  1  0  0  0  0
M  END
$$$$
Cc1cccnc1
 OpenBabel07182308452D

  7  7  0  0  0  0  0  0  0  0999 V2000
   -4.1743   -1.2028    0.0000 C   0  0  0  0  0  0  0  0  0  0  0  0
   -3.5375   -1.6272    0.0000 C   0  0  0  0  0  0  0  0  0  0  0  0
   -2.8300   -1.2028    0.0000 C   0  0  0  0  0  0  0  0  0  0  0  0
   -3.5375   -2.4055    0.0000 C   0  0  0  0  0  0  0  0  0  0  0  0
   -2.8300   -2.8300    0.0000 N   0  0  0  0  0  0  0  0  0  0  0  0
   -2.0518   -1.6272    0.0000 C   0  0  0  0  0  0  0  0  0  0  0  0
   -2.0518   -2.4055    0.0000 C   0  0  0  0  0  0  0  0  0  0  0  0
  2  1  1  0  0  0  0
  3  2  1  0  0  0  0
  4  2  2  0  0  0  0
  5  4  1  0  0  0  0
  6  3  2  0  0  0  0
  7  5  2  0  0  0  0
  7  6  1  0  0  0  0
M  END
$$$$
NC(=O)N
 OpenBabel07182308452D

  7  6  0  0  0  0  0  0  0  0999 V2000
    3.6083    2.4763    0.0000 N   0  0  0  0  0  0  0  0  0  0  0  0
    3.6083    3.3252    0.0000 C   0  0  0  0  0  0  0  0  0  0  0  0
    2.9008    3.7498    0.0000 O   0  0  0  0  0  0  0  0  0  0  0  0
    4.3158    3.7498    0.0000 N   0  0  0  0  0  0  0  0  0  0  0  0
    4.4650    1.9912    0.0000 H   0  0  0  0  0  0  0  0  0  0  0  0
    5.1766    3.2720    0.0000 H   0  0  0  0  0  0  0  0  0  0  0  0
    4.2991    4.7342    0.0000 H   0  0  0  0  0  0  0  0  0  0  0  0
  1  5  1  0  0  0  0
  2  1  1  0  0  0  0
  3  2  2  0  0  0  0
  4  2  1  0  0  0  0
  4  6  1  0  0  0  0
  4  7  1  0  0  0  0
M  END
$$$$
O=C1NC(C)C(=O)NC(C)C(=O)NCCSSCC(C(=O)NC(C(=O)NC1C)C)N
 OpenBabel07182308452D

 37 37  0  0  0  0  0  0  0  0999 V2000
   -3.3064   -9.9025    0.0000 C   0  0  0  0  0  0  0  0  0  0  0  0
   -1.1629  -11.9650    0.0000 C   0  0  0  0  0  0  0  0  0  0  0  0
    0.6982   -9.9522    0.0000 C   0  0  0  0  0  0  0  0  0  0  0  0
    3.1238   -9.4899    0.0000 C   0  0  0  0  0  0  0  0  0  0  0  0
   -3.3064   -8.2525    0.0000 O   0  0  0  0  0  0  0  0  0  0  0  0
   -2.5919  -11.1399    0.0000 O   0  0  0  0  0  0  0  0  0  0  0  0
    1.9771   -7.8897    0.0000 O   0  0  0  0  0  0  0  0  0  0  0  0
    0.2659  -11.9650    0.0000 O   0  0  0  0  0  0  0  0  0  0  0  0
    3.1238  -11.1399    0.0000 O   0  0  0  0  0  0  0  0  0  0  0  0
   -1.1629   -7.0149    0.0000 C   0  0  0  0  0  0  0  0  0  0  0  0
    0.9804   -7.4274    0.0000 C   0  0  0  0  0  0  0  0  0  0  0  0
   -1.8774   -7.4274    0.0000 C   0  0  0  0  0  0  0  0  0  0  0  0
   -2.5919   -9.4899    0.0000 C   0  0  3  0  0  0  0  0  0  0  0  0
   -1.1629  -11.1399    0.0000 C   0  0  3  0  0  0  0  0  0  0  0  0
    0.9804   -8.2525    0.0000 C   0  0  3  0  0  0  0  0  0  0  0  0
    0.9804  -10.7274    0.0000 C   0  0  3  0  0  0  0  0  0  0  0  0
    2.4094   -9.9025    0.0000 C   0  0  3  0  0  0  0  0  0  0  0  0
   -2.5919   -8.6650    0.0000 C   0  0  0  0  0  0  0  0  0  0  0  0
   -1.8774  -10.7274    0.0000 C   0  0  0  0  0  0  0  0  0  0  0  0
    1.6948   -8.6650    0.0000 C   0  0  0  0  0  0  0  0  0  0  0  0
    0.2659  -11.1399    0.0000 C   0  0  0  0  0  0  0  0  0  0  0  0
    2.4094  -10.7274    0.0000 C   0  0  0  0  0  0  0  0  0  0  0  0
    0.2659   -8.6650    0.0000 N   0  0  0  0  0  0  0  0  0  0  0  0
   -1.8774   -8.2525    0.0000 N   0  0  0  0  0  0  0  0  0  0  0  0
   -1.8774   -9.9025    0.0000 N   0  0  0  0  0  0  0  0  0  0  0  0
   -0.4486  -10.7274    0.0000 N   0  0  0  0  0  0  0  0  0  0  0  0
    1.6948   -9.4899    0.0000 N   0  0  0  0  0  0  0  0  0  0  0  0
    1.6948  -11.1399    0.0000 N   0  0  0  0  0  0  0  0  0  0  0  0
   -0.4486   -7.4274    0.0000 S   0  0  0  0  0  0  0  0  0  0  0  0
    0.2659   -7.0149    0.0000 S   0  0  0  0  0  0  0  0  0  0  0  0
   -0.6174   -8.1550    0.0000 H   0  0  0  0  0  0  0  0  0  0  0  0
    0.2659   -9.6850    0.0000 H   0  0  0  0  0  0  0  0  0  0  0  0
   -1.0248   -8.7448    0.0000 H   0  0  0  0  0  0  0  0  0  0  0  0
   -1.0248   -9.4103    0.0000 H   0  0  0  0  0  0  0  0  0  0  0  0
   -0.4487   -9.7429    0.0000 H   0  0  0  0  0  0  0  0  0  0  0  0
    0.8422   -9.9821    0.0000 H   0  0  0  0  0  0  0  0  0  0  0  0
    1.6947  -12.1244    0.0000 H   0  0  0  0  0  0  0  0  0  0  0  0
  1 13  1  0  0  0  0
  2 14  1  0  0  0  0
  3 16  1  0  0  0  0
  4 17  1  0  0  0  0
  5 18  2  0  0  0  0
  6 19  2  0  0  0  0
  7 20  2  0  0  0  0
  8 21  2  0  0  0  0
  9 22  2  0  0  0  0
 10 29  1  0  0  0  0
 10 12  1  0  0  0  0
 11 30  1  0  0  0  0
 11 15  1  0  0  0  0
 12 24  1  0  0  0  0
 13 25  1  0  0  0  0
 13 18  1  0  0  0  0
 14 26  1  0  0  0  0
 14 19  1  0  0  0  0
 15 23  1  0  0  0  0
 15 20  1  0  0  0  0
 16 28  1  0  0  0  0
 16 21  1  0  0  0  0
 17 27  1  0  0  0  0
 17 22  1  0  0  0  0
 18 24  1  0  0  0  0
 19 25  1  0  0  0  0
 20 27  1  0  0  0  0
 21 26  1  0  0  0  0
 22 28  1  0  0  0  0
 23 31  1  0  0  0  0
 23 32  1  0  0  0  0
 24 33  1  0  0  0  0
 25 34  1  0  0  0  0
 26 35  1  0  0  0  0
 27 36  1  0  0  0  0
 28 37  1  0  0  0  0
 29 30  1  0  0  0  0
M  END
$$$$
O=C1NCC(=O)NCC(=O)N[C@@H](C)C(=O)O[C@H](C)CC(=O)NCC(=O)N[C@H](C(=O)N[C@H](C(=O)N[C@@H](C(=O)N[C@H](C(=O)NC1)C)C)C)C
 OpenBabel07182308452D

 56 56  0  0  0  0  0  0  0  0999 V2000
    3.0938   -1.0716    0.0000 C   0  0  0  0  0  0  0  0  0  0  0  0
    8.0437    1.7862    0.0000 C   0  0  0  0  0  0  0  0  0  0  0  0
    3.3772   -4.0299    0.0000 C   0  0  2  0  0  0  0  0  0  0  0  0
    4.0916   -4.4424    0.0000 N   0  0  0  0  0  0  0  0  0  0  0  0
    4.7438   -3.9296    0.0000 C   0  0  0  0  0  0  0  0  0  0  0  0
    5.5687   -3.9296    0.0000 C   0  0  0  0  0  0  0  0  0  0  0  0
    5.9813   -3.2151    0.0000 N   0  0  0  0  0  0  0  0  0  0  0  0
    6.8063   -3.2151    0.0000 C   0  0  0  0  0  0  0  0  0  0  0  0
    7.2188   -2.5005    0.0000 C   0  0  0  0  0  0  0  0  0  0  0  0
    6.8063   -1.7861    0.0000 N   0  0  0  0  0  0  0  0  0  0  0  0
    7.2188   -1.0716    0.0000 C   0  0  0  0  0  0  0  0  0  0  0  0
    5.9813    3.9296    0.0000 N   0  0  0  0  0  0  0  0  0  0  0  0
    5.5687    4.6441    0.0000 C   0  0  0  0  0  0  0  0  0  0  0  0
    3.5063    1.0716    0.0000 C   0  0  0  0  0  0  0  0  0  0  0  0
    3.0938    0.3572    0.0000 N   0  0  0  0  0  0  0  0  0  0  0  0
    4.7438    4.6441    0.0000 C   0  0  1  0  0  0  0  0  0  0  0  0
    4.3312    3.9296    0.0000 N   0  0  0  0  0  0  0  0  0  0  0  0
    3.5063    3.9296    0.0000 C   0  0  0  0  0  0  0  0  0  0  0  0
    3.0938    3.2151    0.0000 C   0  0  1  0  0  0  0  0  0  0  0  0
    3.5063    2.5006    0.0000 N   0  0  0  0  0  0  0  0  0  0  0  0
    3.0938    1.7862    0.0000 C   0  0  0  0  0  0  0  0  0  0  0  0
    3.5063   -0.3572    0.0000 C   0  0  0  0  0  0  0  0  0  0  0  0
    6.8063    3.9296    0.0000 C   0  0  1  0  0  0  0  0  0  0  0  0
    7.2188    3.2151    0.0000 C   0  0  0  0  0  0  0  0  0  0  0  0
    6.8063    2.5006    0.0000 N   0  0  0  0  0  0  0  0  0  0  0  0
    7.2188    1.7862    0.0000 C   0  0  2  0  0  0  0  0  0  0  0  0
    6.8063    1.0716    0.0000 C   0  0  0  0  0  0  0  0  0  0  0  0
    7.2188    0.3572    0.0000 N   0  0  0  0  0  0  0  0  0  0  0  0
    6.8063   -0.3572    0.0000 C   0  0  0  0  0  0  0  0  0  0  0  0
    3.5063   -3.2151    0.0000 C   0  0  0  0  0  0  0  0  0  0  0  0
    3.0938   -2.5005    0.0000 O   0  0  0  0  0  0  0  0  0  0  0  0
    3.5063   -1.7861    0.0000 C   0  0  2  0  0  0  0  0  0  0  0  0
    4.2170   -2.7964    0.0000 O   0  0  0  0  0  0  0  0  0  0  0  0
    4.6076   -3.1159    0.0000 O   0  0  0  0  0  0  0  0  0  0  0  0
    7.2188   -3.9296    0.0000 O   0  0  0  0  0  0  0  0  0  0  0  0
    8.0437   -1.0716    0.0000 O   0  0  0  0  0  0  0  0  0  0  0  0
    5.9813    1.0716    0.0000 O   0  0  0  0  0  0  0  0  0  0  0  0
    8.0437    3.2151    0.0000 O   0  0  0  0  0  0  0  0  0  0  0  0
    7.2188    4.6441    0.0000 C   0  0  0  0  0  0  0  0  0  0  0  0
    5.9813    5.3585    0.0000 O   0  0  0  0  0  0  0  0  0  0  0  0
    3.0938    4.6441    0.0000 O   0  0  0  0  0  0  0  0  0  0  0  0
    2.2687    3.2151    0.0000 C   0  0  0  0  0  0  0  0  0  0  0  0
    2.2687    1.7862    0.0000 O   0  0  0  0  0  0  0  0  0  0  0  0
    4.3312   -1.7861    0.0000 C   0  0  0  0  0  0  0  0  0  0  0  0
    2.6626   -4.4424    0.0000 C   0  0  0  0  0  0  0  0  0  0  0  0
    4.3312   -0.3572    0.0000 O   0  0  0  0  0  0  0  0  0  0  0  0
    4.3312    5.3585    0.0000 C   0  0  0  0  0  0  0  0  0  0  0  0
    4.1618   -5.4244    0.0000 H   0  0  0  0  0  0  0  0  0  0  0  0
    5.4891   -2.3625    0.0000 H   0  0  0  0  0  0  0  0  0  0  0  0
    5.8218   -1.7861    0.0000 H   0  0  0  0  0  0  0  0  0  0  0  0
    5.4891    3.0770    0.0000 H   0  0  0  0  0  0  0  0  0  0  0  0
    2.1093    0.3572    0.0000 H   0  0  0  0  0  0  0  0  0  0  0  0
    4.8234    3.0770    0.0000 H   0  0  0  0  0  0  0  0  0  0  0  0
    4.4908    2.5006    0.0000 H   0  0  0  0  0  0  0  0  0  0  0  0
    5.8218    2.5006    0.0000 H   0  0  0  0  0  0  0  0  0  0  0  0
    8.2033    0.3572    0.0000 H   0  0  0  0  0  0  0  0  0  0  0  0
  1 22  1  0  0  0  0
  3  4  1  0  0  0  0
  3 30  1  0  0  0  0
  3 45  1  1  0  0  0
  4  5  1  0  0  0  0
  4 48  1  0  0  0  0
  5 34  2  0  0  0  0
  6  7  1  0  0  0  0
  6  5  1  0  0  0  0
  7  8  1  0  0  0  0
  7 49  1  0  0  0  0
  8 35  2  0  0  0  0
  9  8  1  0  0  0  0
  9 10  1  0  0  0  0
 10 11  1  0  0  0  0
 10 50  1  0  0  0  0
 11 36  2  0  0  0  0
 12 23  1  0  0  0  0
 12 13  1  0  0  0  0
 12 51  1  0  0  0  0
 13 40  2  0  0  0  0
 14 15  1  0  0  0  0
 15 22  1  0  0  0  0
 15 52  1  0  0  0  0
 16 13  1  0  0  0  0
 16 17  1  0  0  0  0
 16 47  1  1  0  0  0
 17 18  1  0  0  0  0
 17 53  1  0  0  0  0
 18 41  2  0  0  0  0
 19 42  1  1  0  0  0
 19 20  1  0  0  0  0
 19 18  1  0  0  0  0
 20 21  1  0  0  0  0
 20 54  1  0  0  0  0
 21 14  1  0  0  0  0
 21 43  2  0  0  0  0
 22 46  2  0  0  0  0
 23 24  1  0  0  0  0
 23 39  1  6  0  0  0
 24 25  1  0  0  0  0
 24 38  2  0  0  0  0
 25 26  1  0  0  0  0
 25 55  1  0  0  0  0
 26 27  1  0  0  0  0
 26  2  1  1  0  0  0
 27 28  1  0  0  0  0
 27 37  2  0  0  0  0
 28 29  1  0  0  0  0
 28 56  1  0  0  0  0
 29 11  1  0  0  0  0
 30 31  1  0  0  0  0
 30 33  2  0  0  0  0
 31 32  1  0  0  0  0
 32 44  1  1  0  0  0
 32  1  1  0  0  0  0
M  END
$$$$
Nc1ccccc1
 OpenBabel07182308452D

  9  9  0  0  0  0  0  0  0  0999 V2000
    1.2338   -4.4424    0.0000 C   0  0  0  0  0  0  0  0  0  0  0  0
    1.2338   -5.2675    0.0000 C   0  0  0  0  0  0  0  0  0  0  0  0
    0.5192   -5.6800    0.0000 C   0  0  0  0  0  0  0  0  0  0  0  0
   -0.1951   -5.2675    0.0000 C   0  0  0  0  0  0  0  0  0  0  0  0
   -0.1951   -4.4424    0.0000 C   0  0  0  0  0  0  0  0  0  0  0  0
    0.5192   -4.0299    0.0000 C   0  0  0  0  0  0  0  0  0  0  0  0
    0.5192   -3.2050    0.0000 N   0  0  0  0  0  0  0  0  0  0  0  0
    1.3718   -2.7128    0.0000 H   0  0  0  0  0  0  0  0  0  0  0  0
   -0.3334   -2.7127    0.0000 H   0  0  0  0  0  0  0  0  0  0  0  0
  1  2  2  0  0  0  0
  2  3  1  0  0  0  0
  3  4  2  0  0  0  0
  4  5  1  0  0  0  0
  5  6  2  0  0  0  0
  6  1  1  0  0  0  0
  6  7  1  0  0  0  0
  7  8  1  0  0  0  0
  7  9  1  0  0  0  0
M  END
$$$$
CC=C
 OpenBabel07182308452D

  3  2  0  0  0  0  0  0  0  0999 V2000
    0.6944    3.8111    0.0000 C   0  0  0  0  0  0  0  0  0  0  0  0
    0.6944    4.6335    0.0000 C   0  0  0  0  0  0  0  0  0  0  0  0
   -0.0196    5.0467    0.0000 C   0  0  0  0  0  0  0  0  0  0  0  0
  1  2  2  0  0  0  0
  2  3  1  0  0  0  0
M  END
$$$$
O=C1NCC(=O)N(C)CC(=O)N(C)[C@@H](C)C(=O)NCC(=O)N(C)[C@@H](C)C(=O)N[C@H](C(=O)N[C@@H](C(=O)N([C@H](C(=O)N([C@H](C(=O)N(CC(=O)N(C1)C)C)C)C)C)C)C)C
 OpenBabel07182308452D

 61 61  0  0  0  0  0  0  0  0999 V2000
    0.6944    1.3360    0.0000 C   0  0  0  0  0  0  0  0  0  0  0  0
   -0.0196    0.9229    0.0000 N   0  0  0  0  0  0  0  0  0  0  0  0
    1.4085    0.9229    0.0000 C   0  0  0  0  0  0  0  0  0  0  0  0
   -0.7337    1.3360    0.0000 C   0  0  0  0  0  0  0  0  0  0  0  0
   -0.0196    0.1005    0.0000 C   0  0  0  0  0  0  0  0  0  0  0  0
    2.1224    1.3360    0.0000 N   0  0  0  0  0  0  0  0  0  0  0  0
    1.4085    0.1005    0.0000 O   0  0  0  0  0  0  0  0  0  0  0  0
   -1.4477    0.9229    0.0000 C   0  0  0  0  0  0  0  0  0  0  0  0
   -0.7337    2.1583    0.0000 O   0  0  0  0  0  0  0  0  0  0  0  0
    2.8365    0.9229    0.0000 C   0  0  0  0  0  0  0  0  0  0  0  0
   -2.1616    1.3360    0.0000 N   0  0  0  0  0  0  0  0  0  0  0  0
    3.5506    1.3360    0.0000 C   0  0  0  0  0  0  0  0  0  0  0  0
   -2.8757    0.9229    0.0000 C   0  0  0  0  0  0  0  0  0  0  0  0
   -2.1616    2.1583    0.0000 C   0  0  0  0  0  0  0  0  0  0  0  0
    4.2647    0.9229    0.0000 N   0  0  0  0  0  0  0  0  0  0  0  0
    3.5506    2.1583    0.0000 O   0  0  0  0  0  0  0  0  0  0  0  0
   -3.5898    1.3360    0.0000 C   0  0  1  0  0  0  0  0  0  0  0  0
   -2.8757    0.1005    0.0000 O   0  0  0  0  0  0  0  0  0  0  0  0
    4.2647    0.1005    0.0000 C   0  0  0  0  0  0  0  0  0  0  0  0
    4.9787    1.3360    0.0000 C   0  0  0  0  0  0  0  0  0  0  0  0
   -4.3039    0.9229    0.0000 N   0  0  0  0  0  0  0  0  0  0  0  0
   -3.5898    2.1583    0.0000 C   0  0  0  0  0  0  0  0  0  0  0  0
    4.9787   -0.3126    0.0000 C   0  0  0  0  0  0  0  0  0  0  0  0
   -4.2843   -1.6970    0.0000 C   0  0  0  0  0  0  0  0  0  0  0  0
   -5.1303    0.9229    0.0000 C   0  0  0  0  0  0  0  0  0  0  0  0
    5.2692   -1.5421    0.0000 N   0  0  0  0  0  0  0  0  0  0  0  0
    5.6928    0.1005    0.0000 O   0  0  0  0  0  0  0  0  0  0  0  0
   -4.9983   -2.1102    0.0000 C   0  0  1  0  0  0  0  0  0  0  0  0
   -3.4939   -1.4764    0.0000 O   0  0  0  0  0  0  0  0  0  0  0  0
    4.9983   -2.9326    0.0000 C   0  0  2  0  0  0  0  0  0  0  0  0
    5.9854   -1.4956    0.0000 C   0  0  0  0  0  0  0  0  0  0  0  0
   -4.9983   -2.9326    0.0000 N   0  0  0  0  0  0  0  0  0  0  0  0
   -5.7123   -1.6970    0.0000 C   0  0  0  0  0  0  0  0  0  0  0  0
    4.2843   -3.3459    0.0000 C   0  0  0  0  0  0  0  0  0  0  0  0
    5.7124   -3.3459    0.0000 C   0  0  0  0  0  0  0  0  0  0  0  0
   -4.2843   -3.3459    0.0000 C   0  0  0  0  0  0  0  0  0  0  0  0
   -5.7123   -3.3459    0.0000 C   0  0  0  0  0  0  0  0  0  0  0  0
    3.5702   -2.9326    0.0000 N   0  0  0  0  0  0  0  0  0  0  0  0
    4.2843   -4.1682    0.0000 O   0  0  0  0  0  0  0  0  0  0  0  0
   -3.5701   -2.9326    0.0000 C   0  0  2  0  0  0  0  0  0  0  0  0
   -4.2843   -4.1682    0.0000 O   0  0  0  0  0  0  0  0  0  0  0  0
    2.8561   -3.3459    0.0000 C   0  0  0  0  0  0  0  0  0  0  0  0
   -2.8561   -3.3459    0.0000 N   0  0  0  0  0  0  0  0  0  0  0  0
   -3.5701   -2.1102    0.0000 C   0  0  0  0  0  0  0  0  0  0  0  0
    2.1421   -2.9326    0.0000 C   0  0  0  0  0  0  0  0  0  0  0  0
   -2.1420   -2.9326    0.0000 C   0  0  0  0  0  0  0  0  0  0  0  0
    1.4281   -3.3459    0.0000 N   0  0  0  0  0  0  0  0  0  0  0  0
    2.1421   -2.1102    0.0000 O   0  0  0  0  0  0  0  0  0  0  0  0
   -1.4282   -3.3459    0.0000 C   0  0  1  0  0  0  0  0  0  0  0  0
   -2.1420   -2.1102    0.0000 O   0  0  0  0  0  0  0  0  0  0  0  0
    0.7140   -2.9326    0.0000 C   0  0  2  0  0  0  0  0  0  0  0  0
    1.4281   -4.1682    0.0000 C   0  0  0  0  0  0  0  0  0  0  0  0
   -0.7141   -2.9326    0.0000 N   0  0  0  0  0  0  0  0  0  0  0  0
   -1.4282   -4.1682    0.0000 C   0  0  0  0  0  0  0  0  0  0  0  0
    0.0000   -3.3459    0.0000 C   0  0  0  0  0  0  0  0  0  0  0  0
    0.0000   -4.1682    0.0000 O   0  0  0  0  0  0  0  0  0  0  0  0
    0.7140   -2.1076    0.0000 C   0  0  0  0  0  0  0  0  0  0  0  0
    2.1223    2.3205    0.0000 H   0  0  0  0  0  0  0  0  0  0  0  0
    3.5702   -1.9481    0.0000 H   0  0  0  0  0  0  0  0  0  0  0  0
   -2.8561   -4.3304    0.0000 H   0  0  0  0  0  0  0  0  0  0  0  0
   -0.7141   -1.9481    0.0000 H   0  0  0  0  0  0  0  0  0  0  0  0
  1  2  1  0  0  0  0
  1  3  1  0  0  0  0
  2  4  1  0  0  0  0
  2  5  1  0  0  0  0
  3  6  1  0  0  0  0
  3  7  2  0  0  0  0
  4  8  1  0  0  0  0
  4  9  2  0  0  0  0
  6 10  1  0  0  0  0
  6 58  1  0  0  0  0
  8 11  1  0  0  0  0
 10 12  1  0  0  0  0
 11 13  1  0  0  0  0
 11 14  1  0  0  0  0
 12 15  1  0  0  0  0
 12 16  2  0  0  0  0
 13 17  1  0  0  0  0
 13 18  2  0  0  0  0
 15 19  1  0  0  0  0
 15 20  1  0  0  0  0
 17 21  1  0  0  0  0
 17 22  1  1  0  0  0
 19 23  1  0  0  0  0
 21 25  1  0  0  0  0
 23 27  2  0  0  0  0
 23 26  1  0  0  0  0
 24 28  1  0  0  0  0
 24 29  2  0  0  0  0
 24 21  1  0  0  0  0
 26 30  1  0  0  0  0
 26 31  1  0  0  0  0
 28 32  1  0  0  0  0
 28 33  1  1  0  0  0
 30 34  1  0  0  0  0
 30 35  1  1  0  0  0
 32 36  1  0  0  0  0
 32 37  1  0  0  0  0
 34 38  1  0  0  0  0
 34 39  2  0  0  0  0
 36 40  1  0  0  0  0
 36 41  2  0  0  0  0
 38 42  1  0  0  0  0
 38 59  1  0  0  0  0
 40 43  1  0  0  0  0
 40 44  1  1  0  0  0
 42 45  1  0  0  0  0
 43 46  1  0  0  0  0
 43 60  1  0  0  0  0
 45 47  1  0  0  0  0
 45 48  2  0  0  0  0
 46 49  1  0  0  0  0
 46 50  2  0  0  0  0
 47 51  1  0  0  0  0
 47 52  1  0  0  0  0
 49 53  1  0  0  0  0
 49 54  1  1  0  0  0
 51 55  1  0  0  0  0
 51 57  1  6  0  0  0
 53 55  1  0  0  0  0
 53 61  1  0  0  0  0
 55 56  2  0  0  0  0
M  END
$$$$
CNC
 OpenBabel07182308452D

  3  2  0  0  0  0  0  0  0  0999 V2000
   -0.0698   -0.8010    0.0000 N   0  0  0  0  0  0  0  0  0  0  0  0
    0.6312   -1.2135    0.0000 C   0  0  0  0  0  0  0  0  0  0  0  0
   -0.0698    0.0239    0.0000 C   0  0  0  0  0  0  0  0  0  0  0  0
  1  2  1  0  0  0  0
  1  3  1  0  0  0  0
M  END
$$$$
Cc1ccc(cc1)Cl
 OpenBabel07182308452D

  8  8  0  0  0  0  0  0  0  0999 V2000
   -5.7623    0.0239    0.0000 C   0  0  0  0  0  0  0  0  0  0  0  0
   -5.0611    0.4364    0.0000 C   0  0  0  0  0  0  0  0  0  0  0  0
   -4.3186    0.0652    0.0000 C   0  0  0  0  0  0  0  0  0  0  0  0
   -3.6173    0.5190    0.0000 C   0  0  0  0  0  0  0  0  0  0  0  0
   -3.6172    1.3026    0.0000 C   0  0  0  0  0  0  0  0  0  0  0  0
   -4.3596    1.7152    0.0000 C   0  0  0  0  0  0  0  0  0  0  0  0
   -5.0609    1.2614    0.0000 C   0  0  0  0  0  0  0  0  0  0  0  0
   -2.9160    1.7564    0.0000 Cl  0  0  0  0  0  0  0  0  0  0  0  0
  2  1  1  0  0  0  0
  2  3  1  0  0  0  0
  3  4  2  0  0  0  0
  4  5  1  0  0  0  0
  5  6  2  0  0  0  0
  5  8  1  0  0  0  0
  6  7  1  0  0  0  0
  7  2  2  0  0  0  0
M  END
$$$$
OP(=O)(O)O
 OpenBabel07182308452D

  7  6  0  0  0  0  0  0  0  0999 V2000
    6.3799    0.2063    0.0000 P   0  0  0  0  0  0  0  0  0  0  0  0
    5.6655   -0.2063    0.0000 O   0  0  0  0  0  0  0  0  0  0  0  0
    6.7925   -0.5082    0.0000 O   0  0  0  0  0  0  0  0  0  0  0  0
    7.0944    0.6188    0.0000 O   0  0  0  0  0  0  0  0  0  0  0  0
    5.9674    0.9207    0.0000 O   0  0  0  0  0  0  0  0  0  0  0  0
    6.3076   -1.3483    0.0000 H   0  0  0  0  0  0  0  0  0  0  0  0
    7.9344    0.1338    0.0000 H   0  0  0  0  0  0  0  0  0  0  0  0
  1  2  1  0  0  0  0
  1  3  1  0  0  0  0
  1  4  1  0  0  0  0
  1  5  2  0  0  0  0
  3  6  1  0  0  0  0
  4  7  1  0  0  0  0
M  END
$$$$
Cc1cnc(c(c1)O)C
 OpenBabel07182308452D

 10 10  0  0  0  0  0  0  0  0999 V2000
    2.0930    0.2063    0.0000 O   0  0  0  0  0  0  0  0  0  0  0  0
    3.5220   -1.4438    0.0000 N   0  0  0  0  0  0  0  0  0  0  0  0
    4.2365   -0.2063    0.0000 C   0  0  0  0  0  0  0  0  0  0  0  0
    3.5220    0.2063    0.0000 C   0  0  0  0  0  0  0  0  0  0  0  0
    4.9509    0.2063    0.0000 C   0  0  0  0  0  0  0  0  0  0  0  0
    2.8075   -0.2063    0.0000 C   0  0  0  0  0  0  0  0  0  0  0  0
    2.8075   -1.0313    0.0000 C   0  0  0  0  0  0  0  0  0  0  0  0
    4.2365   -1.0313    0.0000 C   0  0  0  0  0  0  0  0  0  0  0  0
    2.0930   -1.4438    0.0000 C   0  0  0  0  0  0  0  0  0  0  0  0
    2.0931    1.1433    0.0000 H   0  0  0  0  0  0  0  0  0  0  0  0
  1  6  1  0  0  0  0
  1 10  1  0  0  0  0
  2  7  2  0  0  0  0
  2  8  1  0  0  0  0
  3  4  1  0  0  0  0
  3  5  1  0  0  0  0
  3  8  2  0  0  0  0
  4  6  2  0  0  0  0
  6  7  1  0  0  0  0
  7  9  1  0  0  0  0
M  END
$$$$
CC(O)C
 OpenBabel07182308452D

  4  3  0  0  0  0  0  0  0  0999 V2000
    2.3831   -1.7304    0.0000 C   0  0  0  0  0  0  0  0  0  0  0  0
    2.2652   -0.9138    0.0000 C   0  0  0  0  0  0  0  0  0  0  0  0
    1.4992   -0.6076    0.0000 C   0  0  0  0  0  0  0  0  0  0  0  0
    2.9134   -0.4035    0.0000 O   0  0  0  0  0  0  0  0  0  0  0  0
  2  1  1  0  0  0  0
  2  3  1  0  0  0  0
  2  4  1  0  0  0  0
M  END
$$$$
C/C/1=C\2/N[C@@](C([C@@H]2C)(C)C)(C)[C@@H]2N=C(C([C@H]2C)(C)C)/C(=C/2\N=C(/C=C/3\N=C1C(C)(C)[C@@H]3C)C(C)(C)[C@@H]2C)/C
 OpenBabel07182308452D

 38 42  0  0  0  0  0  0  0  0999 V2000
   -1.3293   -1.0159    0.0000 C   0  0  0  0  0  0  0  0  0  0  0  0
   -1.4472   -0.1994    0.0000 C   0  0  0  0  0  0  0  0  0  0  0  0
   -0.6228   -0.1675    0.0000 C   0  0  0  0  0  0  0  0  0  0  0  0
   -1.3927    0.6237    0.0000 C   0  0  1  0  0  0  0  0  0  0  0  0
   -0.6947    1.0636    0.0000 C   0  0  0  0  0  0  0  0  0  0  0  0
   -2.1588    0.9300    0.0000 C   0  0  1  0  0  0  0  0  0  0  0  0
   -2.6867    0.2961    0.0000 N   0  0  0  0  0  0  0  0  0  0  0  0
   -2.2469   -0.4019    0.0000 C   0  0  0  0  0  0  0  0  0  0  0  0
   -2.7933   -1.3143    0.0000 C   0  0  0  0  0  0  0  0  0  0  0  0
   -2.2343   -1.9211    0.0000 C   0  0  0  0  0  0  0  0  0  0  0  0
   -3.5334   -1.6787    0.0000 C   0  0  0  0  0  0  0  0  0  0  0  0
   -4.1087   -1.0874    0.0000 N   0  0  0  0  0  0  0  0  0  0  0  0
   -4.8489   -1.4518    0.0000 C   0  0  0  0  0  0  0  0  0  0  0  0
   -5.6992   -0.8131    0.0000 C   0  0  0  0  0  0  0  0  0  0  0  0
   -5.9842   -0.0388    0.0000 C   0  0  0  0  0  0  0  0  0  0  0  0
   -5.3360    0.4713    0.0000 N   0  0  0  0  0  0  0  0  0  0  0  0
   -5.6211    1.2456    0.0000 C   0  0  0  0  0  0  0  0  0  0  0  0
   -4.8969    2.0244    0.0000 C   0  0  0  0  0  0  0  0  0  0  0  0
   -5.3175    2.7342    0.0000 C   0  0  0  0  0  0  0  0  0  0  0  0
   -4.0972    2.2270    0.0000 C   0  0  0  0  0  0  0  0  0  0  0  0
   -3.5693    2.8610    0.0000 C   0  0  1  0  0  0  0  0  0  0  0  0
   -3.7718    3.6607    0.0000 C   0  0  0  0  0  0  0  0  0  0  0  0
   -2.8032    2.5547    0.0000 C   0  0  0  0  0  0  0  0  0  0  0  0
   -1.9902    2.4145    0.0000 C   0  0  0  0  0  0  0  0  0  0  0  0
   -2.5787    3.3487    0.0000 C   0  0  0  0  0  0  0  0  0  0  0  0
   -2.8577    1.7316    0.0000 C   0  0  2  0  0  0  0  0  0  0  0  0
   -2.0760    1.9954    0.0000 C   0  0  0  0  0  0  0  0  0  0  0  0
   -3.6574    1.5291    0.0000 N   0  0  0  0  0  0  0  0  0  0  0  0
   -6.4455    1.2138    0.0000 C   0  0  0  0  0  0  0  0  0  0  0  0
   -6.3910    2.0370    0.0000 C   0  0  0  0  0  0  0  0  0  0  0  0
   -7.2585    1.3540    0.0000 C   0  0  0  0  0  0  0  0  0  0  0  0
   -6.6699    0.4199    0.0000 C   0  0  2  0  0  0  0  0  0  0  0  0
   -7.4441    0.1347    0.0000 C   0  0  0  0  0  0  0  0  0  0  0  0
   -4.7310   -2.2684    0.0000 C   0  0  0  0  0  0  0  0  0  0  0  0
   -4.7855   -3.0916    0.0000 C   0  0  0  0  0  0  0  0  0  0  0  0
   -5.5554   -2.3001    0.0000 C   0  0  0  0  0  0  0  0  0  0  0  0
   -3.9180   -2.4086    0.0000 C   0  0  2  0  0  0  0  0  0  0  0  0
   -3.5536   -3.1488    0.0000 C   0  0  0  0  0  0  0  0  0  0  0  0
  2  1  1  0  0  0  0
  2  3  1  0  0  0  0
  2  4  1  0  0  0  0
  2  8  1  0  0  0  0
  4  5  1  6  0  0  0
  4  6  1  0  0  0  0
  6  7  1  0  0  0  0
  6 26  1  1  0  0  0
  7  8  2  0  0  0  0
  8  9  1  0  0  0  0
  9 10  1  0  0  0  0
  9 11  2  0  0  0  0
 11 12  1  0  0  0  0
 11 37  1  0  0  0  0
 12 13  2  0  0  0  0
 13 14  1  0  0  0  0
 13 34  1  0  0  0  0
 14 15  2  0  0  0  0
 15 16  1  0  0  0  0
 15 32  1  0  0  0  0
 16 17  2  0  0  0  0
 17 18  1  0  0  0  0
 17 29  1  0  0  0  0
 18 19  1  0  0  0  0
 18 20  2  0  0  0  0
 20 21  1  0  0  0  0
 20 28  1  0  0  0  0
 21 22  1  1  0  0  0
 21 23  1  0  0  0  0
 23 24  1  0  0  0  0
 23 25  1  0  0  0  0
 23 26  1  0  0  0  0
 26 27  1  1  0  0  0
 26 28  1  0  0  0  0
 29 30  1  0  0  0  0
 29 31  1  0  0  0  0
 29 32  1  0  0  0  0
 32 33  1  1  0  0  0
 34 35  1  0  0  0  0
 34 36  1  0  0  0  0
 34 37  1  0  0  0  0
 37 38  1  1  0  0  0
M  END
$$$$
N#C[Co+]
 OpenBabel07182308452D

  3  2  0  0  0  0  0  0  0  0999 V2000
   -3.9636    0.7630    0.0000 Co  0  3  0  0  0  0  0  0  0  0  0  0
   -3.4533    0.1147    0.0000 C   0  0  0  0  0  0  0  0  0  0  0  0
   -2.9429   -0.5334    0.0000 N   0  0  0  0  0  0  0  0  0  0  0  0
  1  2  1  0  0  0  0
  2  3  3  0  0  0  0
M  CHG  1   1   1
M  END
$$$$
[O-]P(=O)O
 OpenBabel07182308452D

  4  3  0  0  0  0  0  0  0  0999 V2000
    3.6795   -0.7097    0.0000 P   0  0  3  0  0  0  0  0  0  0  0  0
    3.9857    0.0563    0.0000 O   0  5  0  0  0  0  0  0  0  0  0  0
    3.3733   -1.4758    0.0000 O   0  0  0  0  0  0  0  0  0  0  0  0
    4.4456   -1.0159    0.0000 O   0  0  0  0  0  0  0  0  0  0  0  0
  1  2  1  0  0  0  0
  1  3  2  0  0  0  0
  1  4  1  0  0  0  0
M  CHG  1   2  -1
M  END
$$$$
O[C@H]1COCC1
 OpenBabel07182308452D

  7  7  0  0  0  0  0  0  0  0999 V2000
    5.0938   -0.5056    0.0000 C   0  0  0  0  0  0  0  0  0  0  0  0
    5.8877   -0.7300    0.0000 C   0  0  0  0  0  0  0  0  0  0  0  0
    6.3465   -0.0443    0.0000 O   0  0  0  0  0  0  0  0  0  0  0  0
    5.8361    0.6038    0.0000 C   0  0  0  0  0  0  0  0  0  0  0  0
    5.0619    0.3187    0.0000 C   0  0  2  0  0  0  0  0  0  0  0  0
    4.3763    0.7776    0.0000 O   0  0  0  0  0  0  0  0  0  0  0  0
    4.4405    1.7455    0.0000 H   0  0  0  0  0  0  0  0  0  0  0  0
  1  2  1  0  0  0  0
  1  5  1  0  0  0  0
  2  3  1  0  0  0  0
  3  4  1  0  0  0  0
  4  5  1  0  0  0  0
  5  6  1  1  0  0  0
  6  7  1  0  0  0  0
M  END
$$$$
Cc1cc2[nH]cnc2cc1C
 OpenBabel07182308452D

 11 12  0  0  0  0  0  0  0  0999 V2000
    6.0606    1.3978    0.0000 N   0  0  0  0  0  0  0  0  0  0  0  0
    5.5502    2.0460    0.0000 C   0  0  0  0  0  0  0  0  0  0  0  0
    6.0090    2.7316    0.0000 N   0  0  0  0  0  0  0  0  0  0  0  0
    6.8029    2.5071    0.0000 C   0  0  0  0  0  0  0  0  0  0  0  0
    7.5009    2.9469    0.0000 C   0  0  0  0  0  0  0  0  0  0  0  0
    8.2308    2.5623    0.0000 C   0  0  0  0  0  0  0  0  0  0  0  0
    8.9288    3.0022    0.0000 C   0  0  0  0  0  0  0  0  0  0  0  0
    8.2627    1.7380    0.0000 C   0  0  0  0  0  0  0  0  0  0  0  0
    8.9925    1.3534    0.0000 C   0  0  0  0  0  0  0  0  0  0  0  0
    7.5646    1.2982    0.0000 C   0  0  0  0  0  0  0  0  0  0  0  0
    6.8348    1.6827    0.0000 C   0  0  0  0  0  0  0  0  0  0  0  0
  1  2  1  0  0  0  0
  1 11  1  0  0  0  0
  2  3  2  0  0  0  0
  3  4  1  0  0  0  0
  4  5  1  0  0  0  0
  4 11  2  0  0  0  0
  5  6  2  0  0  0  0
  6  7  1  0  0  0  0
  6  8  1  0  0  0  0
  8  9  1  0  0  0  0
  8 10  2  0  0  0  0
 10 11  1  0  0  0  0
M  END
$$$$
Nc1ncnc2c1nc[nH]2
 OpenBabel07182308452D

 12 13  0  0  0  0  0  0  0  0999 V2000
    2.9475    0.7879    0.0000 N   0  0  0  0  0  0  0  0  0  0  0  0
    2.1630    1.0427    0.0000 C   0  0  0  0  0  0  0  0  0  0  0  0
    3.4325    1.4551    0.0000 C   0  0  0  0  0  0  0  0  0  0  0  0
    2.1630    1.8677    0.0000 C   0  0  0  0  0  0  0  0  0  0  0  0
    1.5512    0.6553    0.0000 N   0  0  0  0  0  0  0  0  0  0  0  0
    2.9475    2.1225    0.0000 N   0  0  0  0  0  0  0  0  0  0  0  0
    1.5294    2.1434    0.0000 C   0  0  0  0  0  0  0  0  0  0  0  0
    0.9139    1.0463    0.0000 C   0  0  0  0  0  0  0  0  0  0  0  0
    0.9139    1.7416    0.0000 N   0  0  0  0  0  0  0  0  0  0  0  0
    1.5294    2.8328    0.0000 N   0  0  0  0  0  0  0  0  0  0  0  0
    2.3820    3.3251    0.0000 H   0  0  0  0  0  0  0  0  0  0  0  0
    0.6768    3.3251    0.0000 H   0  0  0  0  0  0  0  0  0  0  0  0
  1  2  1  0  0  0  0
  1  3  1  0  0  0  0
  2  4  2  0  0  0  0
  2  5  1  0  0  0  0
  3  6  2  0  0  0  0
  4  7  1  0  0  0  0
  4  6  1  0  0  0  0
  5  8  2  0  0  0  0
  7  9  2  0  0  0  0
  7 10  1  0  0  0  0
  8  9  1  0  0  0  0
 10 11  1  0  0  0  0
 10 12  1  0  0  0  0
M  END
$$$$
O[C@H]1CO[C@@H]([C@H]1O)C
 OpenBabel07182308452D

 10 10  0  0  0  0  0  0  0  0999 V2000
    2.9647   -1.2966    0.0000 C   0  0  0  0  0  0  0  0  0  0  0  0
    1.8750   -0.7789    0.0000 O   0  0  0  0  0  0  0  0  0  0  0  0
    2.5484   -2.1114    0.0000 C   0  0  1  0  0  0  0  0  0  0  0  0
    0.8829   -1.2966    0.0000 C   0  0  1  0  0  0  0  0  0  0  0  0
    1.2919   -2.1114    0.0000 C   0  0  1  0  0  0  0  0  0  0  0  0
    2.9274   -2.8328    0.0000 O   0  0  0  0  0  0  0  0  0  0  0  0
    0.7603   -0.3749    0.0000 C   0  0  0  0  0  0  0  0  0  0  0  0
    0.8938   -2.7954    0.0000 O   0  0  0  0  0  0  0  0  0  0  0  0
    2.4093   -3.6528    0.0000 H   0  0  0  0  0  0  0  0  0  0  0  0
   -0.0762   -2.7920    0.0000 H   0  0  0  0  0  0  0  0  0  0  0  0
  1  2  1  0  0  0  0
  1  3  1  0  0  0  0
  2  4  1  0  0  0  0
  3  5  1  0  0  0  0
  3  6  1  6  0  0  0
  4  7  1  1  0  0  0
  4  5  1  0  0  0  0
  5  8  1  6  0  0  0
  6  9  1  0  0  0  0
  8 10  1  0  0  0  0
M  END
$$$$
C[SH+]C
 OpenBabel07182308452D

  3  2  0  0  0  0  0  0  0  0999 V2000
    0.0832    0.0633    0.0000 S   0  3  0  0  0  0  0  0  0  0  0  0
   -0.5973   -0.3749    0.0000 C   0  0  0  0  0  0  0  0  0  0  0  0
    0.0669    0.9530    0.0000 C   0  0  0  0  0  0  0  0  0  0  0  0
  1  2  1  0  0  0  0
  1  3  1  0  0  0  0
M  CHG  1   1   1
M  END
$$$$
[O-]C=O
 OpenBabel07182308452D

  3  2  0  0  0  0  0  0  0  0999 V2000
   -2.7229    0.0885    0.0000 C   0  0  0  0  0  0  0  0  0  0  0  0
   -3.4325   -0.3749    0.0000 O   0  0  0  0  0  0  0  0  0  0  0  0
   -2.7229    0.8525    0.0000 O   0  5  0  0  0  0  0  0  0  0  0  0
  1  2  2  0  0  0  0
  1  3  1  0  0  0  0
M  CHG  1   3  -1
M  END
$$$$
O=C1N[C@@H]2[C@H](N1)[C@@H](SC2)C
 OpenBabel07182308452D

 14 15  0  0  1  0  0  0  0  0999 V2000
    5.0072   -1.4297    0.0000 S   0  0  0  0  0  0  0  0  0  0  0  0
    1.6501   -1.4297    0.0000 O   0  0  0  0  0  0  0  0  0  0  0  0
    2.9603   -0.7622    0.0000 N   0  0  0  0  0  0  0  0  0  0  0  0
    2.9603   -2.0972    0.0000 N   0  0  0  0  0  0  0  0  0  0  0  0
    3.7448   -1.0172    0.0000 C   0  0  1  0  0  0  0  0  0  0  0  0
    3.7448   -1.8423    0.0000 C   0  0  2  0  0  0  0  0  0  0  0  0
    4.5257   -0.7658    0.0000 C   0  0  2  0  0  0  0  0  0  0  0  0
    4.5257   -2.0937    0.0000 C   0  0  0  0  0  0  0  0  0  0  0  0
    4.7819    0.0186    0.0000 C   0  0  0  0  0  0  0  0  0  0  0  0
    2.4752   -1.4297    0.0000 C   0  0  0  0  0  0  0  0  0  0  0  0
    3.7458   -0.3571    0.0000 H   0  0  0  0  0  0  0  0  0  0  0  0
    3.7458   -2.5023    0.0000 H   0  0  0  0  0  0  0  0  0  0  0  0
    2.6562    0.1742    0.0000 H   0  0  0  0  0  0  0  0  0  0  0  0
    2.6561   -3.0335    0.0000 H   0  0  0  0  0  0  0  0  0  0  0  0
  1  7  1  0  0  0  0
  1  8  1  0  0  0  0
  2 10  2  0  0  0  0
  3  5  1  0  0  0  0
  3 10  1  0  0  0  0
  3 13  1  0  0  0  0
  4  6  1  0  0  0  0
  4 10  1  0  0  0  0
  4 14  1  0  0  0  0
  5  6  1  1  0  0  0
  5 11  1  0  0  0  0
  6  8  1  0  0  0  0
  6 12  1  1  0  0  0
  7  5  1  6  0  0  0
  7  9  1  0  0  0  0
M  END
$$$$
C[N+](C)(C)C
 OpenBabel07182308452D

  5  4  0  0  0  0  0  0  0  0999 V2000
    2.3645    0.0000    0.0000 N   0  3  0  0  0  0  0  0  0  0  0  0
    3.0791    0.4125    0.0000 C   0  0  0  0  0  0  0  0  0  0  0  0
    1.6501   -0.4125    0.0000 C   0  0  0  0  0  0  0  0  0  0  0  0
    1.9520    0.7145    0.0000 C   0  0  0  0  0  0  0  0  0  0  0  0
    2.7770   -0.7145    0.0000 C   0  0  0  0  0  0  0  0  0  0  0  0
  1  2  1  0  0  0  0
  1  3  1  0  0  0  0
  1  4  1  0  0  0  0
  1  5  1  0  0  0  0
M  CHG  1   1   1
M  END
$$$$
OC1=C(O)C(=O)OC1
 OpenBabel07182308452D

 11 11  0  0  1  0  0  0  0  0999 V2000
    0.0000    0.0000    0.0000 O   0  0  0  0  0  0  0  0  0  0  0  0
   -0.8974   -1.9370    0.0000 O   0  0  0  0  0  0  0  0  0  0  0  0
    0.8974   -1.9370    0.0000 O   0  0  0  0  0  0  0  0  0  0  0  0
    0.6674   -0.4849    0.0000 C   0  0  0  0  0  0  0  0  0  0  0  0
    1.4521   -0.2300    0.0000 O   0  0  0  0  0  0  0  0  0  0  0  0
    0.4125   -1.2695    0.0000 C   0  0  0  0  0  0  0  0  0  0  0  0
   -0.4125   -1.2695    0.0000 C   0  0  0  0  0  0  0  0  0  0  0  0
   -0.6674   -0.4849    0.0000 C   0  0  0  0  0  0  0  0  0  0  0  0
   -1.2508   -1.0683    0.0000 H   0  0  0  0  0  0  0  0  0  0  0  0
   -1.8293   -1.8391    0.0000 H   0  0  0  0  0  0  0  0  0  0  0  0
    0.5162   -2.7930    0.0000 H   0  0  0  0  0  0  0  0  0  0  0  0
  1  4  1  0  0  0  0
  2 10  1  0  0  0  0
  3 11  1  0  0  0  0
  4  5  2  0  0  0  0
  4  6  1  0  0  0  0
  6  3  1  0  0  0  0
  6  7  2  0  0  0  0
  7  2  1  0  0  0  0
  8  1  1  0  0  0  0
  8  7  1  0  0  0  0
  8  9  1  0  0  0  0
M  END
$$$$
C=C
 OpenBabel07182308452D

  2  1  0  0  0  0  0  0  0  0999 V2000
    8.7949   -1.3159    0.0000 C   0  0  0  0  0  0  0  0  0  0  0  0
    8.7949   -0.4909    0.0000 C   0  0  0  0  0  0  0  0  0  0  0  0
  1  2  2  0  0  0  0
M  END
$$$$
CSC
 OpenBabel07182308452D

  3  2  0  0  0  0  0  0  0  0999 V2000
   -0.7144   -0.2062    0.0000 C   0  0  0  0  0  0  0  0  0  0  0  0
   -1.4289    0.2062    0.0000 S   0  0  0  0  0  0  0  0  0  0  0  0
   -2.1434   -0.2062    0.0000 C   0  0  0  0  0  0  0  0  0  0  0  0
  2  1  1  0  0  0  0
  3  2  1  0  0  0  0
M  END
$$$$
O[C@H]1C[C@H](O)C(=C)C(=C)C1
 OpenBabel07182308452D

 12 12  0  0  1  0  0  0  0  0999 V2000
   -1.8035   -1.6110    0.0000 C   0  0  0  0  0  0  0  0  0  0  0  0
   -1.8035   -2.4360    0.0000 C   0  0  0  0  0  0  0  0  0  0  0  0
   -1.0890   -2.8485    0.0000 C   0  0  0  0  0  0  0  0  0  0  0  0
   -2.5179   -2.8485    0.0000 C   0  0  0  0  0  0  0  0  0  0  0  0
   -0.3745   -2.4360    0.0000 C   0  0  0  0  0  0  0  0  0  0  0  0
   -2.5179   -3.6735    0.0000 C   0  0  2  0  0  0  0  0  0  0  0  0
   -1.8035   -4.0860    0.0000 C   0  0  0  0  0  0  0  0  0  0  0  0
   -3.2324   -4.0860    0.0000 O   0  0  0  0  0  0  0  0  0  0  0  0
   -1.0890   -3.6735    0.0000 C   0  0  2  0  0  0  0  0  0  0  0  0
   -0.3745   -4.0860    0.0000 O   0  0  0  0  0  0  0  0  0  0  0  0
   -4.0724   -3.6010    0.0000 H   0  0  0  0  0  0  0  0  0  0  0  0
   -0.3745   -5.0560    0.0000 H   0  0  0  0  0  0  0  0  0  0  0  0
  1  2  2  0  0  0  0
  2  3  1  0  0  0  0
  2  4  1  0  0  0  0
  3  9  1  0  0  0  0
  3  5  2  0  0  0  0
  4  6  1  0  0  0  0
  6  8  1  6  0  0  0
  6  7  1  0  0  0  0
  8 11  1  0  0  0  0
  9  7  1  0  0  0  0
  9 10  1  1  0  0  0
 10 12  1  0  0  0  0
M  END
$$$$
C=C1CCC[C@]2([C@H]1CCC2)C
 OpenBabel07182308452D

 13 14  0  0  1  0  0  0  0  0999 V2000
   -1.0890    1.2765    0.0000 C   0  0  0  0  0  0  0  0  0  0  0  0
   -1.0890   -0.3735    0.0000 C   0  0  0  0  0  0  0  0  0  0  0  0
    0.4101   -0.2159    0.0000 C   0  0  0  0  0  0  0  0  0  0  0  0
    0.8950    0.4515    0.0000 C   0  0  0  0  0  0  0  0  0  0  0  0
   -1.8035    0.8640    0.0000 C   0  0  0  0  0  0  0  0  0  0  0  0
   -1.0890   -1.1985    0.0000 C   0  0  0  0  0  0  0  0  0  0  0  0
   -1.8035    0.0390    0.0000 C   0  0  0  0  0  0  0  0  0  0  0  0
    0.4101    1.1190    0.0000 C   0  0  0  0  0  0  0  0  0  0  0  0
    1.1246    1.5315    0.0000 H   0  0  0  0  0  0  0  0  0  0  0  0
   -0.3745    0.0390    0.0000 C   0  0  2  0  0  0  0  0  0  0  0  0
   -0.3745   -0.7860    0.0000 H   0  0  0  0  0  0  0  0  0  0  0  0
   -0.3745    0.8640    0.0000 C   0  0  2  0  0  0  0  0  0  0  0  0
   -0.3745    1.6890    0.0000 C   0  0  0  0  0  0  0  0  0  0  0  0
  1  5  1  0  0  0  0
  2  6  2  0  0  0  0
  2  7  1  0  0  0  0
  3  4  1  0  0  0  0
  5  7  1  0  0  0  0
  8  4  1  0  0  0  0
  8  9  1  0  0  0  0
 10 12  1  6  0  0  0
 10  2  1  0  0  0  0
 10  3  1  0  0  0  0
 10 11  1  0  0  0  0
 12  8  1  0  0  0  0
 12  1  1  0  0  0  0
 12 13  1  1  0  0  0
M  END
$$$$
O[C@@H]1CC(=CC(C1)(C)C)C
 OpenBabel07182308452D
Marvin  03020616332D
 11 11  0  0  0  0  0  0  0  0999 V2000
   -6.7893   -0.2309    0.0000 C   0  0  0  0  0  0  0  0  0  0  0  0
   -7.5038   -1.4684    0.0000 C   0  0  0  0  0  0  0  0  0  0  0  0
   -8.2182   -0.2309    0.0000 C   0  0  0  0  0  0  0  0  0  0  0  0
   -6.7893   -1.0559    0.0000 C   0  0  0  0  0  0  0  0  0  0  0  0
   -6.0748   -1.4684    0.0000 C   0  0  0  0  0  0  0  0  0  0  0  0
   -7.9163    0.8961    0.0000 C   0  0  0  0  0  0  0  0  0  0  0  0
   -7.5038    0.1816    0.0000 C   0  0  0  0  0  0  0  0  0  0  0  0
   -7.0913    0.8961    0.0000 C   0  0  0  0  0  0  0  0  0  0  0  0
   -8.2182   -1.0559    0.0000 C   0  0  2  0  0  0  0  0  0  0  0  0
   -8.9327   -1.4684    0.0000 O   0  0  0  0  0  0  0  0  0  0  0  0
   -9.7727   -0.9834    0.0000 H   0  0  0  0  0  0  0  0  0  0  0  0
  1  4  2  0  0  0  0
  1  7  1  0  0  0  0
  2  9  1  0  0  0  0
  3  9  1  0  0  0  0
  4  2  1  0  0  0  0
  4  5  1  0  0  0  0
  7  3  1  0  0  0  0
  7  6  1  0  0  0  0
  7  8  1  0  0  0  0
  9 10  1  1  0  0  0
 10 11  1  0  0  0  0
M  END
$$$$
CC1=C[C@H](O)CC(C1)(C)C
 OpenBabel07182308452D
Marvin  03020616332D
 11 11  0  0  0  0  0  0  0  0999 V2000
    6.7857    0.1816    0.0000 C   0  0  0  0  0  0  0  0  0  0  0  0
    7.5001    1.4191    0.0000 C   0  0  0  0  0  0  0  0  0  0  0  0
    8.2146    0.1816    0.0000 C   0  0  0  0  0  0  0  0  0  0  0  0
    6.0712    1.4191    0.0000 C   0  0  0  0  0  0  0  0  0  0  0  0
    6.7857    1.0066    0.0000 C   0  0  0  0  0  0  0  0  0  0  0  0
    7.0876   -0.9453    0.0000 C   0  0  0  0  0  0  0  0  0  0  0  0
    7.5001   -0.2309    0.0000 C   0  0  0  0  0  0  0  0  0  0  0  0
    7.9126   -0.9453    0.0000 C   0  0  0  0  0  0  0  0  0  0  0  0
    8.2146    1.0066    0.0000 C   0  0  1  0  0  0  0  0  0  0  0  0
    8.9291    1.4191    0.0000 O   0  0  0  0  0  0  0  0  0  0  0  0
    9.7691    0.9341    0.0000 H   0  0  0  0  0  0  0  0  0  0  0  0
  1  5  1  0  0  0  0
  1  7  1  0  0  0  0
  2  9  1  0  0  0  0
  3  9  1  0  0  0  0
  5  2  2  0  0  0  0
  5  4  1  0  0  0  0
  7  3  1  0  0  0  0
  7  6  1  0  0  0  0
  7  8  1  0  0  0  0
  9 10  1  6  0  0  0
 10 11  1  0  0  0  0
M  END
$$$$
SS
 OpenBabel07182308452D

  2  1  0  0  0  0  0  0  0  0999 V2000
    0.3642   -0.2350    0.0000 S   0  0  0  0  0  0  0  0  0  0  0  0
   -0.3503    0.1775    0.0000 S   0  0  0  0  0  0  0  0  0  0  0  0
  1  2  1  0  0  0  0
M  END
$$$$
Cc1cc2nc3c(=O)[nH]c(=O)nc3n(c2cc1C)C
 OpenBabel07182308452D

 20 22  0  0  0  0  0  0  0  0999 V2000
    0.7145    0.4125    0.0000 C   0  0  0  0  0  0  0  0  0  0  0  0
    0.7145   -0.4125    0.0000 C   0  0  0  0  0  0  0  0  0  0  0  0
   -0.7145    0.4125    0.0000 C   0  0  0  0  0  0  0  0  0  0  0  0
   -0.7145   -0.4125    0.0000 C   0  0  0  0  0  0  0  0  0  0  0  0
   -1.4289    0.8250    0.0000 C   0  0  0  0  0  0  0  0  0  0  0  0
   -1.4289   -0.8250    0.0000 C   0  0  0  0  0  0  0  0  0  0  0  0
   -2.1434   -0.4125    0.0000 C   0  0  0  0  0  0  0  0  0  0  0  0
   -2.1434    0.4125    0.0000 C   0  0  0  0  0  0  0  0  0  0  0  0
    2.1434    0.4125    0.0000 C   0  0  0  0  0  0  0  0  0  0  0  0
    0.0000   -0.8250    0.0000 N   0  0  0  0  0  0  0  0  0  0  0  0
    1.4289    0.8250    0.0000 N   0  0  0  0  0  0  0  0  0  0  0  0
    1.4289   -0.8250    0.0000 C   0  0  0  0  0  0  0  0  0  0  0  0
    1.4289   -1.6500    0.0000 O   0  0  0  0  0  0  0  0  0  0  0  0
    2.8579    0.8250    0.0000 O   0  0  0  0  0  0  0  0  0  0  0  0
    2.1434   -0.4125    0.0000 N   0  0  0  0  0  0  0  0  0  0  0  0
    0.0000    0.8250    0.0000 N   0  0  0  0  0  0  0  0  0  0  0  0
    0.0000    1.6500    0.0000 C   0  0  0  0  0  0  0  0  0  0  0  0
   -2.8579    0.8250    0.0000 C   0  0  0  0  0  0  0  0  0  0  0  0
   -2.8579   -0.8250    0.0000 C   0  0  0  0  0  0  0  0  0  0  0  0
    2.9960   -0.9048    0.0000 H   0  0  0  0  0  0  0  0  0  0  0  0
  2  1  1  0  0  0  0
  2 12  1  0  0  0  0
  3  4  1  0  0  0  0
  4 10  1  0  0  0  0
  5  3  2  0  0  0  0
  5  8  1  0  0  0  0
  6  4  2  0  0  0  0
  7  6  1  0  0  0  0
  7 19  1  0  0  0  0
  8  7  2  0  0  0  0
  8 18  1  0  0  0  0
  9 14  2  0  0  0  0
 10  2  2  0  0  0  0
 11  1  2  0  0  0  0
 11  9  1  0  0  0  0
 12 15  1  0  0  0  0
 12 13  2  0  0  0  0
 15  9  1  0  0  0  0
 15 20  1  0  0  0  0
 16  3  1  0  0  0  0
 16  1  1  0  0  0  0
 16 17  1  0  0  0  0
M  END
$$$$
CCS
 OpenBabel07182308452D

  4  3  0  0  0  0  0  0  0  0999 V2000
   -1.0715    1.4439    0.0000 C   0  0  0  0  0  0  0  0  0  0  0  0
   -1.0715    2.2689    0.0000 C   0  0  0  0  0  0  0  0  0  0  0  0
   -0.3571    2.6814    0.0000 S   0  0  0  0  0  0  0  0  0  0  0  0
    0.8207    2.0015    0.0000 H   0  0  0  0  0  0  0  0  0  0  0  0
  1  2  1  0  0  0  0
  2  3  1  0  0  0  0
  3  4  1  0  0  0  0
M  END
$$$$
O[C@H]1CCC(=C)C(=C)C1
 OpenBabel07182308452D

 10 10  0  0  1  0  0  0  0  0999 V2000
   -1.8035   -1.6110    0.0000 C   0  0  0  0  0  0  0  0  0  0  0  0
   -1.8035   -2.4360    0.0000 C   0  0  0  0  0  0  0  0  0  0  0  0
   -1.0890   -2.8485    0.0000 C   0  0  0  0  0  0  0  0  0  0  0  0
   -2.5179   -2.8485    0.0000 C   0  0  0  0  0  0  0  0  0  0  0  0
   -1.0890   -3.6735    0.0000 C   0  0  0  0  0  0  0  0  0  0  0  0
   -0.3745   -2.4360    0.0000 C   0  0  0  0  0  0  0  0  0  0  0  0
   -2.5179   -3.6735    0.0000 C   0  0  2  0  0  0  0  0  0  0  0  0
   -1.8035   -4.0860    0.0000 C   0  0  0  0  0  0  0  0  0  0  0  0
   -3.2324   -4.0860    0.0000 O   0  0  0  0  0  0  0  0  0  0  0  0
   -4.0724   -3.6010    0.0000 H   0  0  0  0  0  0  0  0  0  0  0  0
  1  2  2  0  0  0  0
  2  3  1  0  0  0  0
  2  4  1  0  0  0  0
  3  5  1  0  0  0  0
  3  6  2  0  0  0  0
  4  7  1  0  0  0  0
  5  8  1  0  0  0  0
  7  9  1  6  0  0  0
  7  8  1  0  0  0  0
  9 10  1  0  0  0  0
M  END
$$$$
NC=N
 OpenBabel07182308452D

  6  5  0  0  0  0  0  0  0  0999 V2000
    2.6664    0.7145    0.0000 C   0  0  0  0  0  0  0  0  0  0  0  0
    3.3809    1.1270    0.0000 N   0  0  0  0  0  0  0  0  0  0  0  0
    2.6664   -0.1105    0.0000 N   0  0  0  0  0  0  0  0  0  0  0  0
    4.2335    0.6347    0.0000 H   0  0  0  0  0  0  0  0  0  0  0  0
    1.8138   -0.6028    0.0000 H   0  0  0  0  0  0  0  0  0  0  0  0
    3.5190   -0.6027    0.0000 H   0  0  0  0  0  0  0  0  0  0  0  0
  1  2  2  0  0  0  0
  1  3  1  0  0  0  0
  2  4  1  0  0  0  0
  3  5  1  0  0  0  0
  3  6  1  0  0  0  0
M  END
$$$$
CS
 OpenBabel07182308452D

  3  2  0  0  0  0  0  0  0  0999 V2000
   -0.8165    0.2357    0.0000 C   0  0  0  0  0  0  0  0  0  0  0  0
   -1.5310   -0.1768    0.0000 S   0  0  0  0  0  0  0  0  0  0  0  0
   -2.7088    0.5032    0.0000 H   0  0  0  0  0  0  0  0  0  0  0  0
  2  1  1  0  0  0  0
  2  3  1  0  0  0  0
M  END
$$$$
C[n+]1csc(c1C)C
 OpenBabel07182308452D

  8  8  0  0  0  0  0  0  0  0999 V2000
    1.9050    0.8501    0.0000 S   0  0  0  0  0  0  0  0  0  0  0  0
    2.3175   -0.4194    0.0000 N   0  3  0  0  0  0  0  0  0  0  0  0
    2.9849    0.0655    0.0000 C   0  0  0  0  0  0  0  0  0  0  0  0
    2.3175   -1.2445    0.0000 C   0  0  0  0  0  0  0  0  0  0  0  0
    2.7300    0.8501    0.0000 C   0  0  0  0  0  0  0  0  0  0  0  0
    3.2149    1.5175    0.0000 C   0  0  0  0  0  0  0  0  0  0  0  0
    1.6500    0.0655    0.0000 C   0  0  0  0  0  0  0  0  0  0  0  0
    3.7696   -0.1894    0.0000 C   0  0  0  0  0  0  0  0  0  0  0  0
  1  5  1  0  0  0  0
  1  7  1  0  0  0  0
  2  3  1  0  0  0  0
  2  4  1  0  0  0  0
  2  7  2  0  0  0  0
  3  5  2  0  0  0  0
  3  8  1  0  0  0  0
  5  6  1  0  0  0  0
M  CHG  1   2   1
M  END
$$$$
Nc1ccnc(n1)C
 OpenBabel07182308452D

 10 10  0  0  0  0  0  0  0  0999 V2000
    3.7465   -2.8945    0.0000 N   0  0  0  0  0  0  0  0  0  0  0  0
    4.4610   -1.6570    0.0000 N   0  0  0  0  0  0  0  0  0  0  0  0
    2.3175   -2.8945    0.0000 N   0  0  0  0  0  0  0  0  0  0  0  0
    3.0319   -1.6570    0.0000 C   0  0  0  0  0  0  0  0  0  0  0  0
    3.0319   -2.4820    0.0000 C   0  0  0  0  0  0  0  0  0  0  0  0
    3.7465   -1.2445    0.0000 C   0  0  0  0  0  0  0  0  0  0  0  0
    4.4610   -2.4820    0.0000 C   0  0  0  0  0  0  0  0  0  0  0  0
    5.1754   -2.8945    0.0000 C   0  0  0  0  0  0  0  0  0  0  0  0
    1.4649   -2.4023    0.0000 H   0  0  0  0  0  0  0  0  0  0  0  0
    2.3175   -3.8790    0.0000 H   0  0  0  0  0  0  0  0  0  0  0  0
  1  5  2  0  0  0  0
  1  7  1  0  0  0  0
  2  6  1  0  0  0  0
  2  7  2  0  0  0  0
  3  5  1  0  0  0  0
  3  9  1  0  0  0  0
  3 10  1  0  0  0  0
  4  5  1  0  0  0  0
  4  6  2  0  0  0  0
  7  8  1  0  0  0  0
M  END
$$$$
OP(=O)O
 OpenBabel07182308452D

  5  4  0  0  1  0  0  0  0  0999 V2000
    8.4135    2.0213    0.0000 P   0  0  3  0  0  0  0  0  0  0  0  0
    9.1667    1.6844    0.0000 O   0  0  0  0  0  0  0  0  0  0  0  0
    8.7504    2.7744    0.0000 O   0  0  0  0  0  0  0  0  0  0  0  0
    8.0766    1.2682    0.0000 O   0  0  0  0  0  0  0  0  0  0  0  0
    9.7153    2.8741    0.0000 H   0  0  0  0  0  0  0  0  0  0  0  0
  1  2  1  0  0  0  0
  1  3  1  0  0  0  0
  1  4  2  0  0  0  0
  3  5  1  0  0  0  0
M  END
$$$$
C1C=CNC=C1
 OpenBabel07182308452D

  6  6  0  0  1  0  0  0  0  0999 V2000
   12.7226    1.8597    0.0000 N   0  0  0  0  0  0  0  0  0  0  0  0
   13.2737    1.2456    0.0000 C   0  0  0  0  0  0  0  0  0  0  0  0
   12.9790    2.6438    0.0000 C   0  0  0  0  0  0  0  0  0  0  0  0
   14.0809    1.4157    0.0000 C   0  0  0  0  0  0  0  0  0  0  0  0
   14.3372    2.1999    0.0000 C   0  0  0  0  0  0  0  0  0  0  0  0
   13.7862    2.8140    0.0000 C   0  0  0  0  0  0  0  0  0  0  0  0
  1  2  1  0  0  0  0
  1  3  1  0  0  0  0
  2  4  2  0  0  0  0
  3  6  2  0  0  0  0
  4  5  1  0  0  0  0
  5  6  1  0  0  0  0
M  END
$$$$
Cc1cnc2c(n1)c(=O)nc([nH]2)N
 OpenBabel07182308452D

 16 17  0  0  1  0  0  0  0  0999 V2000
    3.5220   -0.2286    0.0000 O   0  0  0  0  0  0  0  0  0  0  0  0
    4.9740   -1.0250    0.0000 N   0  0  0  0  0  0  0  0  0  0  0  0
    3.5220   -2.7036    0.0000 N   0  0  0  0  0  0  0  0  0  0  0  0
    4.9740   -2.7322    0.0000 N   0  0  0  0  0  0  0  0  0  0  0  0
    2.8075   -1.4661    0.0000 N   0  0  0  0  0  0  0  0  0  0  0  0
    2.0930   -2.7036    0.0000 N   0  0  0  0  0  0  0  0  0  0  0  0
    6.4343   -1.0337    0.0000 C   0  0  0  0  0  0  0  0  0  0  0  0
    5.7214   -1.4490    0.0000 C   0  0  0  0  0  0  0  0  0  0  0  0
    4.2364   -1.4661    0.0000 C   0  0  0  0  0  0  0  0  0  0  0  0
    4.2364   -2.2911    0.0000 C   0  0  0  0  0  0  0  0  0  0  0  0
    5.7214   -2.3083    0.0000 C   0  0  0  0  0  0  0  0  0  0  0  0
    3.5220   -1.0536    0.0000 C   0  0  0  0  0  0  0  0  0  0  0  0
    2.8075   -2.2911    0.0000 C   0  0  0  0  0  0  0  0  0  0  0  0
    3.5220   -3.6881    0.0000 H   0  0  0  0  0  0  0  0  0  0  0  0
    1.2404   -2.2113    0.0000 H   0  0  0  0  0  0  0  0  0  0  0  0
    2.0930   -3.6881    0.0000 H   0  0  0  0  0  0  0  0  0  0  0  0
  1 12  2  0  0  0  0
  2  8  1  0  0  0  0
  2  9  2  0  0  0  0
  3 10  1  0  0  0  0
  3 13  1  0  0  0  0
  3 14  1  0  0  0  0
  4 10  2  0  0  0  0
  4 11  1  0  0  0  0
  5 12  1  0  0  0  0
  5 13  2  0  0  0  0
  6 13  1  0  0  0  0
  6 15  1  0  0  0  0
  6 16  1  0  0  0  0
  7  8  1  0  0  0  0
  8 11  2  0  0  0  0
  9 10  1  0  0  0  0
  9 12  1  0  0  0  0
M  END
$$$$
CC1=CC(CCC1)(C)C
 OpenBabel07182308452D

  9  9  0  0  0  0  0  0  0  0999 V2000
   -6.7893   -0.2309    0.0000 C   0  0  0  0  0  0  0  0  0  0  0  0
   -7.5038   -1.4684    0.0000 C   0  0  0  0  0  0  0  0  0  0  0  0
   -8.2182   -0.2309    0.0000 C   0  0  0  0  0  0  0  0  0  0  0  0
   -8.2182   -1.0559    0.0000 C   0  0  0  0  0  0  0  0  0  0  0  0
   -6.7893   -1.0559    0.0000 C   0  0  0  0  0  0  0  0  0  0  0  0
   -6.0748   -1.4684    0.0000 C   0  0  0  0  0  0  0  0  0  0  0  0
   -7.9163    0.8961    0.0000 C   0  0  0  0  0  0  0  0  0  0  0  0
   -7.5038    0.1816    0.0000 C   0  0  0  0  0  0  0  0  0  0  0  0
   -7.0913    0.8961    0.0000 C   0  0  0  0  0  0  0  0  0  0  0  0
  1  5  2  0  0  0  0
  1  8  1  0  0  0  0
  2  4  1  0  0  0  0
  3  4  1  0  0  0  0
  5  2  1  0  0  0  0
  5  6  1  0  0  0  0
  8  3  1  0  0  0  0
  8  7  1  0  0  0  0
  8  9  1  0  0  0  0
M  END
$$$$
Cc1c2OC(C)(C)CCc2c(c(c1C)O)C
 OpenBabel07182308452D

 17 18  0  0  1  0  0  0  0  0999 V2000
    4.9740   -2.3009    0.0000 O   0  0  0  0  0  0  0  0  0  0  0  0
    2.0930   -0.6223    0.0000 O   0  0  0  0  0  0  0  0  0  0  0  0
    5.7215   -1.8770    0.0000 C   0  0  0  0  0  0  0  0  0  0  0  0
    6.5465   -1.8801    0.0000 C   0  0  0  0  0  0  0  0  0  0  0  0
    5.7215   -1.0177    0.0000 C   0  0  0  0  0  0  0  0  0  0  0  0
    4.9740   -0.5937    0.0000 C   0  0  0  0  0  0  0  0  0  0  0  0
    6.1313   -2.5930    0.0000 C   0  0  0  0  0  0  0  0  0  0  0  0
    4.2365   -1.0348    0.0000 C   0  0  0  0  0  0  0  0  0  0  0  0
    4.2365   -1.8598    0.0000 C   0  0  0  0  0  0  0  0  0  0  0  0
    3.5220   -0.6223    0.0000 C   0  0  0  0  0  0  0  0  0  0  0  0
    3.5220   -2.2723    0.0000 C   0  0  0  0  0  0  0  0  0  0  0  0
    2.8075   -1.8598    0.0000 C   0  0  0  0  0  0  0  0  0  0  0  0
    2.8075   -1.0348    0.0000 C   0  0  0  0  0  0  0  0  0  0  0  0
    3.5220    0.2027    0.0000 C   0  0  0  0  0  0  0  0  0  0  0  0
    3.5220   -3.0974    0.0000 C   0  0  0  0  0  0  0  0  0  0  0  0
    2.0930   -2.2723    0.0000 C   0  0  0  0  0  0  0  0  0  0  0  0
    2.0930    0.3147    0.0000 H   0  0  0  0  0  0  0  0  0  0  0  0
  1  3  1  0  0  0  0
  1  9  1  0  0  0  0
  2 13  1  0  0  0  0
  2 17  1  0  0  0  0
  3  4  1  0  0  0  0
  3  5  1  0  0  0  0
  3  7  1  0  0  0  0
  5  6  1  0  0  0  0
  6  8  1  0  0  0  0
  8  9  2  0  0  0  0
  8 10  1  0  0  0  0
  9 11  1  0  0  0  0
 10 13  2  0  0  0  0
 10 14  1  0  0  0  0
 11 12  2  0  0  0  0
 11 15  1  0  0  0  0
 12 13  1  0  0  0  0
 12 16  1  0  0  0  0
M  END
$$$$
Oc1cccnc1C
 OpenBabel07182308452D

  9  9  0  0  0  0  0  0  0  0999 V2000
    0.7145   -0.4125    0.0000 C   0  0  0  0  0  0  0  0  0  0  0  0
    0.7145    0.4125    0.0000 C   0  0  0  0  0  0  0  0  0  0  0  0
    0.0000   -0.8250    0.0000 N   0  0  0  0  0  0  0  0  0  0  0  0
    0.0000    0.8250    0.0000 C   0  0  0  0  0  0  0  0  0  0  0  0
   -0.7145    0.4125    0.0000 C   0  0  0  0  0  0  0  0  0  0  0  0
   -0.7145   -0.4125    0.0000 C   0  0  0  0  0  0  0  0  0  0  0  0
   -1.4289   -0.8250    0.0000 C   0  0  0  0  0  0  0  0  0  0  0  0
   -1.4289    0.8250    0.0000 O   0  0  0  0  0  0  0  0  0  0  0  0
   -1.4289    1.7620    0.0000 H   0  0  0  0  0  0  0  0  0  0  0  0
  1  3  2  0  0  0  0
  2  1  1  0  0  0  0
  4  2  2  0  0  0  0
  5  4  1  0  0  0  0
  6  3  1  0  0  0  0
  6  5  2  0  0  0  0
  7  6  1  0  0  0  0
  8  5  1  0  0  0  0
  8  9  1  0  0  0  0
M  END
$$$$
C[C@@H]1CCSS1
 OpenBabel07182308452D

  6  6  0  0  0  0  0  0  0  0999 V2000
   -2.1434    0.2584    0.0000 C   0  0  0  0  0  0  0  0  0  0  0  0
   -1.7309   -1.0110    0.0000 S   0  0  0  0  0  0  0  0  0  0  0  0
   -2.8108   -0.2264    0.0000 C   0  0  0  0  0  0  0  0  0  0  0  0
   -2.5559   -1.0110    0.0000 S   0  0  0  0  0  0  0  0  0  0  0  0
   -1.4760   -0.2264    0.0000 C   0  0  2  0  0  0  0  0  0  0  0  0
   -0.7615    0.1860    0.0000 C   0  0  0  0  0  0  0  0  0  0  0  0
  1  3  1  0  0  0  0
  2  4  1  0  0  0  0
  3  4  1  0  0  0  0
  5  1  1  0  0  0  0
  5  2  1  0  0  0  0
  5  6  1  1  0  0  0
M  END
$$$$
O=C1C=C(C)C(=O)c2c1cccc2
 OpenBabel07182308452D

 13 14  0  0  0  0  0  0  0  0999 V2000
    3.0786   -1.6498    0.0000 O   0  0  0  0  0  0  0  0  0  0  0  0
    3.0786    1.6498    0.0000 O   0  0  0  0  0  0  0  0  0  0  0  0
    3.7929   -0.4124    0.0000 C   0  0  0  0  0  0  0  0  0  0  0  0
    3.7929    0.4124    0.0000 C   0  0  0  0  0  0  0  0  0  0  0  0
    2.3641   -0.4124    0.0000 C   0  0  0  0  0  0  0  0  0  0  0  0
    3.0786   -0.8249    0.0000 C   0  0  0  0  0  0  0  0  0  0  0  0
    3.0786    0.8249    0.0000 C   0  0  0  0  0  0  0  0  0  0  0  0
    2.3641    0.4124    0.0000 C   0  0  0  0  0  0  0  0  0  0  0  0
    4.5303   -0.8535    0.0000 C   0  0  0  0  0  0  0  0  0  0  0  0
    4.5303    0.8535    0.0000 C   0  0  0  0  0  0  0  0  0  0  0  0
    1.6498   -0.8249    0.0000 C   0  0  0  0  0  0  0  0  0  0  0  0
    5.2777   -0.4296    0.0000 C   0  0  0  0  0  0  0  0  0  0  0  0
    5.2777    0.4296    0.0000 C   0  0  0  0  0  0  0  0  0  0  0  0
  1  6  2  0  0  0  0
  2  7  2  0  0  0  0
  3  4  1  0  0  0  0
  3  6  1  0  0  0  0
  3  9  2  0  0  0  0
  4  7  1  0  0  0  0
  4 10  2  0  0  0  0
  5  6  1  0  0  0  0
  5  8  2  0  0  0  0
  5 11  1  0  0  0  0
  7  8  1  0  0  0  0
  9 12  1  0  0  0  0
 10 13  1  0  0  0  0
 12 13  2  0  0  0  0
M  END
$$$$
Nc1ncnc2c1[nH]cn2
 OpenBabel07182308452D

 13 14  0  0  0  0  0  0  0  0999 V2000
    3.8596    0.1235    0.0000 N   0  0  0  0  0  0  0  0  0  0  0  0
    3.8596   -1.2043    0.0000 N   0  0  0  0  0  0  0  0  0  0  0  0
    2.3645   -1.3654    0.0000 N   0  0  0  0  0  0  0  0  0  0  0  0
    1.6500   -0.1279    0.0000 N   0  0  0  0  0  0  0  0  0  0  0  0
    2.3645    1.1096    0.0000 N   0  0  0  0  0  0  0  0  0  0  0  0
    3.0790   -0.1279    0.0000 C   0  0  0  0  0  0  0  0  0  0  0  0
    3.0790   -0.9529    0.0000 C   0  0  0  0  0  0  0  0  0  0  0  0
    2.3645    0.2846    0.0000 C   0  0  0  0  0  0  0  0  0  0  0  0
    4.3411   -0.5404    0.0000 C   0  0  0  0  0  0  0  0  0  0  0  0
    1.6500   -0.9529    0.0000 C   0  0  0  0  0  0  0  0  0  0  0  0
    4.1654    1.0593    0.0000 H   0  0  0  0  0  0  0  0  0  0  0  0
    3.2171    1.6018    0.0000 H   0  0  0  0  0  0  0  0  0  0  0  0
    1.5119    1.6018    0.0000 H   0  0  0  0  0  0  0  0  0  0  0  0
  1  6  1  0  0  0  0
  1  9  1  0  0  0  0
  1 11  1  0  0  0  0
  2  7  1  0  0  0  0
  2  9  2  0  0  0  0
  3  7  2  0  0  0  0
  3 10  1  0  0  0  0
  4  8  1  0  0  0  0
  4 10  2  0  0  0  0
  5  8  1  0  0  0  0
  5 12  1  0  0  0  0
  5 13  1  0  0  0  0
  6  7  1  0  0  0  0
  6  8  2  0  0  0  0
M  END
$$$$
O[C@H]1C[C@H](O)[C@H]2C(=C1)C=C[C@@H]([C@@H]2C)C
 OpenBabel07182308452D

 16 17  0  0  1  0  0  0  0  0999 V2000
    3.0790    0.8556    0.0000 O   0  0  0  0  0  0  0  0  0  0  0  0
    1.6500    3.3306    0.0000 O   0  0  0  0  0  0  0  0  0  0  0  0
    3.7935    2.0931    0.0000 C   0  0  1  0  0  0  0  0  0  0  0  0
    4.5309    1.6521    0.0000 C   0  0  2  0  0  0  0  0  0  0  0  0
    3.0790    1.6806    0.0000 C   0  0  2  0  0  0  0  0  0  0  0  0
    5.2785    2.0760    0.0000 C   0  0  2  0  0  0  0  0  0  0  0  0
    4.5214    0.8271    0.0000 C   0  0  0  0  0  0  0  0  0  0  0  0
    3.7935    2.9181    0.0000 C   0  0  0  0  0  0  0  0  0  0  0  0
    2.3645    2.0931    0.0000 C   0  0  0  0  0  0  0  0  0  0  0  0
    2.3645    2.9181    0.0000 C   0  0  1  0  0  0  0  0  0  0  0  0
    5.2785    2.9354    0.0000 C   0  0  0  0  0  0  0  0  0  0  0  0
    3.0790    3.3306    0.0000 C   0  0  0  0  0  0  0  0  0  0  0  0
    4.5309    3.3593    0.0000 C   0  0  0  0  0  0  0  0  0  0  0  0
    5.9913    1.6607    0.0000 C   0  0  0  0  0  0  0  0  0  0  0  0
    3.7883    1.4332    0.0000 H   0  0  0  0  0  0  0  0  0  0  0  0
    1.6500    4.3006    0.0000 H   0  0  0  0  0  0  0  0  0  0  0  0
  2 16  1  0  0  0  0
  3  8  1  0  0  0  0
  3 15  1  6  0  0  0
  4  3  1  6  0  0  0
  4  6  1  0  0  0  0
  4  7  1  0  0  0  0
  5  1  1  0  0  0  0
  5  3  1  1  0  0  0
  5  9  1  0  0  0  0
  6 11  1  0  0  0  0
  6 14  1  6  0  0  0
  8 12  2  0  0  0  0
  8 13  1  0  0  0  0
  9 10  1  0  0  0  0
 10  2  1  6  0  0  0
 10 12  1  0  0  0  0
 11 13  2  0  0  0  0
M  END
$$$$
C/C=N\O
 OpenBabel07182308452D

  4  3  0  0  0  0  0  0  0  0999 V2000
   -0.3571    0.5635    0.0000 C   0  0  0  0  0  0  0  0  0  0  0  0
   -0.3620    1.3894    0.0000 N   0  0  0  0  0  0  0  0  0  0  0  0
    0.3522    1.8024    0.0000 O   0  0  0  0  0  0  0  0  0  0  0  0
    0.3571    0.1506    0.0000 C   0  0  0  0  0  0  0  0  0  0  0  0
  2  1  2  0  0  0  0
  3  2  1  0  0  0  0
  4  1  1  0  0  0  0
M  END
$$$$
FC(F)F
 OpenBabel07182308452D

  4  3  0  0  0  0  0  0  0  0999 V2000
   -3.2136   -1.0978    0.0000 C   0  0  0  0  0  0  0  0  0  0  0  0
   -3.6314   -1.8072    0.0000 F   0  0  0  0  0  0  0  0  0  0  0  0
   -3.9326   -0.6849    0.0000 F   0  0  0  0  0  0  0  0  0  0  0  0
   -2.8056   -1.8072    0.0000 F   0  0  0  0  0  0  0  0  0  0  0  0
  2  1  1  0  0  0  0
  3  1  1  0  0  0  0
  4  1  1  0  0  0  0
M  END
$$$$
COC
 OpenBabel07182308452D

  3  2  0  0  0  0  0  0  0  0999 V2000
    3.2185    0.1603    0.0000 O   0  0  0  0  0  0  0  0  0  0  0  0
    2.5044    0.5732    0.0000 C   0  0  0  0  0  0  0  0  0  0  0  0
    3.9326    0.5781    0.0000 C   0  0  0  0  0  0  0  0  0  0  0  0
  1  2  1  0  0  0  0
  3  1  1  0  0  0  0
M  END
$$$$
n1ncn[nH]1
 OpenBabel07182308452D

  6  6  0  0  1  0  0  0  0  0999 V2000
    7.8559    1.2933    0.0000 N   0  0  0  0  0  0  0  0  0  0  0  0
    9.1909    1.2933    0.0000 N   0  0  0  0  0  0  0  0  0  0  0  0
    8.1109    2.0779    0.0000 N   0  0  0  0  0  0  0  0  0  0  0  0
    8.9359    2.0779    0.0000 N   0  0  0  0  0  0  0  0  0  0  0  0
    8.5234    0.8084    0.0000 C   0  0  0  0  0  0  0  0  0  0  0  0
    7.5323    2.8744    0.0000 H   0  0  0  0  0  0  0  0  0  0  0  0
  1  3  1  0  0  0  0
  1  5  2  0  0  0  0
  2  4  2  0  0  0  0
  2  5  1  0  0  0  0
  3  4  1  0  0  0  0
  3  6  1  0  0  0  0
M  END
$$$$
C1C[C@H]2[C@@H](C1)CCN2
 OpenBabel07182308452D

 10 11  0  0  0  0  0  0  0  0999 V2000
    2.9301    0.6906    0.0000 C   0  0  0  0  0  0  0  0  0  0  0  0
    2.1784   -0.4125    0.0000 N   0  0  0  0  0  0  0  0  0  0  0  0
    3.4751   -1.2962    0.0000 C   0  0  0  0  0  0  0  0  0  0  0  0
    4.2517   -1.0177    0.0000 C   0  0  0  0  0  0  0  0  0  0  0  0
    4.2269   -0.1931    0.0000 C   0  0  0  0  0  0  0  0  0  0  0  0
    2.9704   -0.6437    0.0000 C   0  0  1  0  0  0  0  0  0  0  0  0
    2.5579   -1.3582    0.0000 H   0  0  0  0  0  0  0  0  0  0  0  0
    3.4349    0.0379    0.0000 C   0  0  2  0  0  0  0  0  0  0  0  0
    3.8474    0.7525    0.0000 H   0  0  0  0  0  0  0  0  0  0  0  0
    2.1536    0.4120    0.0000 C   0  0  0  0  0  0  0  0  0  0  0  0
  1 10  1  0  0  0  0
  1  8  1  0  0  0  0
  2  6  1  0  0  0  0
  3  4  1  0  0  0  0
  4  5  1  0  0  0  0
  6  3  1  0  0  0  0
  6  8  1  1  0  0  0
  6  7  1  0  0  0  0
  8  5  1  0  0  0  0
  8  9  1  1  0  0  0
 10  2  1  0  0  0  0
M  END
$$$$
Oc1ccccc1O
 OpenBabel07182308452D

 10 10  0  0  1  0  0  0  0  0999 V2000
    7.0944   -3.5063    0.0000 O   0  0  0  0  0  0  0  0  0  0  0  0
    8.5234   -2.6813    0.0000 O   0  0  0  0  0  0  0  0  0  0  0  0
    6.3799   -1.4438    0.0000 C   0  0  0  0  0  0  0  0  0  0  0  0
    6.3799   -2.2688    0.0000 C   0  0  0  0  0  0  0  0  0  0  0  0
    7.0944   -1.0313    0.0000 C   0  0  0  0  0  0  0  0  0  0  0  0
    7.0944   -2.6813    0.0000 C   0  0  0  0  0  0  0  0  0  0  0  0
    7.8089   -1.4438    0.0000 C   0  0  0  0  0  0  0  0  0  0  0  0
    7.8089   -2.2688    0.0000 C   0  0  0  0  0  0  0  0  0  0  0  0
    6.2829   -3.9748    0.0000 H   0  0  0  0  0  0  0  0  0  0  0  0
    8.5234   -3.6183    0.0000 H   0  0  0  0  0  0  0  0  0  0  0  0
  1  6  1  0  0  0  0
  1  9  1  0  0  0  0
  2  8  1  0  0  0  0
  2 10  1  0  0  0  0
  3  4  2  0  0  0  0
  3  5  1  0  0  0  0
  4  6  1  0  0  0  0
  5  7  2  0  0  0  0
  6  8  2  0  0  0  0
  7  8  1  0  0  0  0
M  END
$$$$
O=C1C=C[C@]2(C(=C1)[C@@H](F)C[C@@H]1[C@@H]2[C@@H](O)C[C@]2([C@H]1C[C@@H]1C2OC(O1)(C)C)C)C
 OpenBabel07182308452D

 32 36  0  0  0  0  0  0  0  0999 V2000
   -1.4573   -0.7640    0.0000 C   0  0  2  0  0  0  0  0  0  0  0  0
   -1.4573   -1.5846    0.0000 C   0  0  0  0  0  0  0  0  0  0  0  0
   -2.1648   -0.3395    0.0000 C   0  0  0  0  0  0  0  0  0  0  0  0
   -2.1648   -1.9808    0.0000 C   0  0  0  0  0  0  0  0  0  0  0  0
   -2.9005   -0.7640    0.0000 C   0  0  0  0  0  0  0  0  0  0  0  0
   -2.9005   -1.5846    0.0000 C   0  0  0  0  0  0  0  0  0  0  0  0
   -0.7216   -0.3395    0.0000 C   0  0  2  0  0  0  0  0  0  0  0  0
   -0.0142   -0.7640    0.0000 C   0  0  1  0  0  0  0  0  0  0  0  0
   -0.7216   -1.9808    0.0000 C   0  0  2  0  0  0  0  0  0  0  0  0
   -0.0142   -1.5846    0.0000 C   0  0  0  0  0  0  0  0  0  0  0  0
   -0.7216    0.5093    0.0000 C   0  0  2  0  0  0  0  0  0  0  0  0
   -0.0142    0.9054    0.0000 C   0  0  0  0  0  0  0  0  0  0  0  0
    0.6932   -0.3395    0.0000 C   0  0  1  0  0  0  0  0  0  0  0  0
    0.6932    0.5093    0.0000 C   0  0  1  0  0  0  0  0  0  0  0  0
    1.4856   -0.5942    0.0000 C   0  0  0  0  0  0  0  0  0  0  0  0
    1.9666    0.0848    0.0000 C   0  0  2  0  0  0  0  0  0  0  0  0
    1.4856    0.7640    0.0000 C   0  0  3  0  0  0  0  0  0  0  0  0
    2.7872    0.3395    0.0000 O   0  0  0  0  0  0  0  0  0  0  0  0
    2.7872    1.1601    0.0000 C   0  0  0  0  0  0  0  0  0  0  0  0
    1.9666    1.4148    0.0000 O   0  0  0  0  0  0  0  0  0  0  0  0
   -3.6079   -1.9808    0.0000 O   0  0  0  0  0  0  0  0  0  0  0  0
   -0.7216   -2.8297    0.0000 F   0  0  0  0  0  0  0  0  0  0  0  0
   -1.4573    0.0848    0.0000 C   0  0  0  0  0  0  0  0  0  0  0  0
   -0.7216   -1.1602    0.0000 H   0  0  0  0  0  0  0  0  0  0  0  0
   -1.4573    0.9054    0.0000 O   0  0  0  0  0  0  0  0  0  0  0  0
   -0.0142    0.0848    0.0000 H   0  0  0  0  0  0  0  0  0  0  0  0
    0.6932   -1.1602    0.0000 H   0  0  0  0  0  0  0  0  0  0  0  0
    0.6932    1.3299    0.0000 C   0  0  0  0  0  0  0  0  0  0  0  0
    3.1834    1.8676    0.0000 C   0  0  0  0  0  0  0  0  0  0  0  0
    3.6079    1.1601    0.0000 C   0  0  0  0  0  0  0  0  0  0  0  0
    1.9982    0.7926    0.0000 H   0  0  0  0  0  0  0  0  0  0  0  0
   -1.4861    1.8750    0.0000 H   0  0  0  0  0  0  0  0  0  0  0  0
  1  7  1  6  0  0  0
  1 23  1  0  0  0  0
  2  1  1  0  0  0  0
  3  1  1  0  0  0  0
  4  2  2  0  0  0  0
  5  3  2  0  0  0  0
  6  4  1  0  0  0  0
  6  5  1  0  0  0  0
  7  8  1  1  0  0  0
  7 24  1  0  0  0  0
  8 13  1  6  0  0  0
  8 26  1  0  0  0  0
  9  2  1  0  0  0  0
  9 22  1  6  0  0  0
 10  8  1  0  0  0  0
 10  9  1  0  0  0  0
 11  7  1  1  0  0  0
 11 25  1  0  0  0  0
 12 11  1  0  0  0  0
 13 14  1  6  0  0  0
 13 27  1  0  0  0  0
 14 12  1  0  0  0  0
 14 28  1  1  0  0  0
 15 13  1  0  0  0  0
 16 15  1  0  0  0  0
 16 31  1  1  0  0  0
 17 14  1  0  0  0  0
 17 16  1  0  0  0  0
 18 16  1  0  0  0  0
 19 18  1  0  0  0  0
 20 17  1  0  0  0  0
 20 19  1  0  0  0  0
 21  6  2  0  0  0  0
 25 32  1  0  0  0  0
 29 19  1  0  0  0  0
 30 19  1  0  0  0  0
M  END
$$$$
NC(=O)O
 OpenBabel07182308452D

  5  4  0  0  0  0  0  0  0  0999 V2000
   -5.6474   -2.3259    0.0000 C   0  0  0  0  0  0  0  0  0  0  0  0
   -5.0637   -2.9037    0.0000 O   0  0  0  0  0  0  0  0  0  0  0  0
   -6.4541   -2.5490    0.0000 O   0  0  0  0  0  0  0  0  0  0  0  0
   -5.4414   -1.5305    0.0000 N   0  0  0  0  0  0  0  0  0  0  0  0
   -6.1504   -0.8475    0.0000 H   0  0  0  0  0  0  0  0  0  0  0  0
  1  4  1  0  0  0  0
  2  1  1  0  0  0  0
  3  1  2  0  0  0  0
  4  5  1  0  0  0  0
M  END
$$$$
c1cccnc1
 OpenBabel07182308452D

  6  6  0  0  1  0  0  0  0  0999 V2000
    9.2541   -8.2465    0.0000 C   0  0  0  0  0  0  0  0  0  0  0  0
    8.5471   -7.0119    0.0000 N   0  0  0  0  0  0  0  0  0  0  0  0
    9.2541   -7.4305    0.0000 C   0  0  0  0  0  0  0  0  0  0  0  0
    8.5471   -8.6546    0.0000 C   0  0  0  0  0  0  0  0  0  0  0  0
    7.8330   -7.4199    0.0000 C   0  0  0  0  0  0  0  0  0  0  0  0
    7.8330   -8.2465    0.0000 C   0  0  0  0  0  0  0  0  0  0  0  0
  3  1  2  0  0  0  0
  3  2  1  0  0  0  0
  4  1  1  0  0  0  0
  5  2  2  0  0  0  0
  6  4  2  0  0  0  0
  6  5  1  0  0  0  0
M  END
$$$$
CN1CCCC1
 OpenBabel07182308452D

  6  6  0  0  1  0  0  0  0  0999 V2000
   10.6821   -8.1129    0.0000 N   0  0  0  0  0  0  0  0  0  0  0  0
   10.0068   -8.5842    0.0000 C   0  0  0  0  0  0  0  0  0  0  0  0
   11.3504   -8.5771    0.0000 C   0  0  0  0  0  0  0  0  0  0  0  0
   10.6821   -7.2722    0.0000 C   0  0  0  0  0  0  0  0  0  0  0  0
   10.2741   -9.3686    0.0000 C   0  0  0  0  0  0  0  0  0  0  0  0
   11.1077   -9.3686    0.0000 C   0  0  0  0  0  0  0  0  0  0  0  0
  2  1  1  0  0  0  0
  3  1  1  0  0  0  0
  4  1  1  0  0  0  0
  5  2  1  0  0  0  0
  6  3  1  0  0  0  0
  6  5  1  0  0  0  0
M  END
$$$$
CC1SC[C@]2(O1)CN1CCC2CC1
 OpenBabel07182308452D

 13 15  0  0  0  0  0  0  0  0999 V2000
   -0.4743    0.0388    0.0000 C   0  0  3  0  0  0  0  0  0  0  0  0
   -1.2993    0.0388    0.0000 C   0  0  0  0  0  0  0  0  0  0  0  0
   -1.7118   -0.6757    0.0000 C   0  0  0  0  0  0  0  0  0  0  0  0
   -1.2993   -1.3902    0.0000 N   0  0  3  0  0  0  0  0  0  0  0  0
   -0.4743   -1.3902    0.0000 C   0  0  0  0  0  0  0  0  0  0  0  0
   -0.4743   -0.7862    0.0000 C   0  0  0  0  0  0  0  0  0  0  0  0
   -1.2993   -0.7862    0.0000 C   0  0  0  0  0  0  0  0  0  0  0  0
    0.3340    0.0481    0.0000 C   0  0  0  0  0  0  0  0  0  0  0  0
   -0.0618   -0.6757    0.0000 C   0  0  1  0  0  0  0  0  0  0  0  0
    0.5042   -1.2759    0.0000 O   0  0  0  0  0  0  0  0  0  0  0  0
    1.2499   -0.9230    0.0000 C   0  0  3  0  0  0  0  0  0  0  0  0
    1.1448   -0.1047    0.0000 S   0  0  0  0  0  0  0  0  0  0  0  0
    1.9737   -1.3188    0.0000 C   0  0  0  0  0  0  0  0  0  0  0  0
  1  2  1  0  0  0  0
  1  9  1  0  0  0  0
  1  6  1  0  0  0  0
  2  3  1  0  0  0  0
  3  4  1  0  0  0  0
  4  5  1  0  0  0  0
  4  7  1  0  0  0  0
  6  7  1  0  0  0  0
  8 12  1  0  0  0  0
  9  8  1  6  0  0  0
  9  5  1  0  0  0  0
  9 10  1  0  0  0  0
 10 11  1  0  0  0  0
 11 12  1  0  0  0  0
 11 13  1  0  0  0  0
M  END
$$$$
O=C1Nc2ccc(cc2C=NC1O)Cl
 OpenBabel07182308452D

 16 17  0  0  1  0  0  0  0  0999 V2000
    2.5467   -2.3783    0.0000 Cl  0  0  0  0  0  0  0  0  0  0  0  0
    3.8811    2.3401    0.0000 O   0  0  0  0  0  0  0  0  0  0  0  0
    2.3403    2.3401    0.0000 O   0  0  0  0  0  0  0  0  0  0  0  0
    2.1838    0.9518    0.0000 N   0  0  0  0  0  0  0  0  0  0  0  0
    4.0375    0.9518    0.0000 N   0  0  0  0  0  0  0  0  0  0  0  0
    3.1106   -0.2105    0.0000 C   0  0  0  0  0  0  0  0  0  0  0  0
    3.8540    0.1475    0.0000 C   0  0  0  0  0  0  0  0  0  0  0  0
    2.3674    0.1475    0.0000 C   0  0  0  0  0  0  0  0  0  0  0  0
    3.5231    1.5968    0.0000 C   0  0  3  0  0  0  0  0  0  0  0  0
    3.1881   -1.0663    0.0000 C   0  0  0  0  0  0  0  0  0  0  0  0
    2.6981    1.5968    0.0000 C   0  0  0  0  0  0  0  0  0  0  0  0
    1.6500   -0.3256    0.0000 C   0  0  0  0  0  0  0  0  0  0  0  0
    2.4818   -1.5559    0.0000 C   0  0  0  0  0  0  0  0  0  0  0  0
    1.7076   -1.1830    0.0000 C   0  0  0  0  0  0  0  0  0  0  0  0
    4.8484    2.4125    0.0000 H   0  0  0  0  0  0  0  0  0  0  0  0
    1.2240    1.1708    0.0000 H   0  0  0  0  0  0  0  0  0  0  0  0
  1 13  1  0  0  0  0
  2  9  1  0  0  0  0
  2 15  1  0  0  0  0
  3 11  2  0  0  0  0
  4  8  1  0  0  0  0
  4 11  1  0  0  0  0
  4 16  1  0  0  0  0
  5  7  2  0  0  0  0
  5  9  1  0  0  0  0
  6  7  1  0  0  0  0
  6  8  2  0  0  0  0
  6 10  1  0  0  0  0
  8 12  1  0  0  0  0
  9 11  1  0  0  0  0
 10 13  2  0  0  0  0
 12 14  2  0  0  0  0
 13 14  1  0  0  0  0
M  END
$$$$
n1ccncc1
 OpenBabel07182308452D

  6  6  0  0  1  0  0  0  0  0999 V2000
    6.9269  -17.7973    0.0000 C   0  0  0  0  0  0  0  0  0  0  0  0
    6.9269  -18.6223    0.0000 N   0  0  0  0  0  0  0  0  0  0  0  0
    6.2124  -17.3848    0.0000 C   0  0  0  0  0  0  0  0  0  0  0  0
    6.2124  -19.0348    0.0000 C   0  0  0  0  0  0  0  0  0  0  0  0
    5.4979  -17.7973    0.0000 N   0  0  0  0  0  0  0  0  0  0  0  0
    5.4979  -18.6223    0.0000 C   0  0  0  0  0  0  0  0  0  0  0  0
  2  1  1  0  0  0  0
  3  1  2  0  0  0  0
  4  2  2  0  0  0  0
  5  3  1  0  0  0  0
  6  4  1  0  0  0  0
  6  5  2  0  0  0  0
M  END
$$$$
OBO
 OpenBabel07182308452D

  5  4  0  0  1  0  0  0  0  0999 V2000
   11.2138  -18.6223    0.0000 B   0  0  0  0  0  0  0  0  0  0  0  0
   10.4993  -19.0348    0.0000 O   0  0  0  0  0  0  0  0  0  0  0  0
   11.9282  -19.0348    0.0000 O   0  0  0  0  0  0  0  0  0  0  0  0
    9.6593  -18.5498    0.0000 H   0  0  0  0  0  0  0  0  0  0  0  0
   11.9282  -20.0048    0.0000 H   0  0  0  0  0  0  0  0  0  0  0  0
  1  2  1  0  0  0  0
  1  3  1  0  0  0  0
  2  4  1  0  0  0  0
  3  5  1  0  0  0  0
M  END
$$$$
OCC#C
 OpenBabel07182308452D

  5  4  0  0  0  0  0  0  0  0999 V2000
    0.3610   -0.4091    0.0000 C   0  0  0  0  0  0  0  0  0  0  0  0
    0.3610   -1.2400    0.0000 C   0  0  0  0  0  0  0  0  0  0  0  0
    0.3610    0.4174    0.0000 C   0  0  0  0  0  0  0  0  0  0  0  0
    0.3610    1.2400    0.0000 O   0  0  0  0  0  0  0  0  0  0  0  0
    1.2010    1.7250    0.0000 H   0  0  0  0  0  0  0  0  0  0  0  0
  2  1  3  0  0  0  0
  3  1  1  0  0  0  0
  4  3  1  0  0  0  0
  4  5  1  0  0  0  0
M  END
$$$$
ClC=C
 OpenBabel07182308452D

  3  2  0  0  0  0  0  0  0  0999 V2000
   -0.3528    0.8309    0.0000 C   0  0  0  0  0  0  0  0  0  0  0  0
   -1.0750    0.4174    0.0000 C   0  0  0  0  0  0  0  0  0  0  0  0
   -1.7889    0.8309    0.0000 Cl  0  0  0  0  0  0  0  0  0  0  0  0
  2  1  2  0  0  0  0
  3  2  1  0  0  0  0
M  END
$$$$
Cc1ccc(c(c1)O)O
 OpenBabel07182308452D

 11 11  0  0  0  0  0  0  0  0999 V2000
   -0.3528    0.0645    0.0000 C   0  0  0  0  0  0  0  0  0  0  0  0
   -0.3528   -0.7605    0.0000 C   0  0  0  0  0  0  0  0  0  0  0  0
   -1.0686    0.4821    0.0000 C   0  0  0  0  0  0  0  0  0  0  0  0
   -1.0686   -1.1681    0.0000 C   0  0  0  0  0  0  0  0  0  0  0  0
   -1.7844    0.0645    0.0000 C   0  0  0  0  0  0  0  0  0  0  0  0
   -1.7844   -0.7605    0.0000 C   0  0  0  0  0  0  0  0  0  0  0  0
   -2.5001    0.4821    0.0000 O   0  0  0  0  0  0  0  0  0  0  0  0
   -2.5001   -1.1681    0.0000 O   0  0  0  0  0  0  0  0  0  0  0  0
    0.3628    0.4821    0.0000 C   0  0  0  0  0  0  0  0  0  0  0  0
   -2.4958    1.4191    0.0000 H   0  0  0  0  0  0  0  0  0  0  0  0
   -3.3088   -0.6948    0.0000 H   0  0  0  0  0  0  0  0  0  0  0  0
  2  1  1  0  0  0  0
  3  1  2  0  0  0  0
  4  2  2  0  0  0  0
  5  3  1  0  0  0  0
  6  4  1  0  0  0  0
  6  5  2  0  0  0  0
  7  5  1  0  0  0  0
  7 10  1  0  0  0  0
  8  6  1  0  0  0  0
  8 11  1  0  0  0  0
  9  1  1  0  0  0  0
M  END
$$$$
CC(N)(C)C
 OpenBabel07182308452D

  7  6  0  0  0  0  0  0  0  0999 V2000
    3.7935    1.3943    0.0000 N   0  0  0  0  0  0  0  0  0  0  0  0
    3.0791    0.9818    0.0000 C   0  0  0  0  0  0  0  0  0  0  0  0
    2.3645    0.5693    0.0000 C   0  0  0  0  0  0  0  0  0  0  0  0
    2.6665    1.6962    0.0000 C   0  0  0  0  0  0  0  0  0  0  0  0
    3.4916    0.2673    0.0000 C   0  0  0  0  0  0  0  0  0  0  0  0
    4.6769    0.8843    0.0000 H   0  0  0  0  0  0  0  0  0  0  0  0
    3.7935    2.4143    0.0000 H   0  0  0  0  0  0  0  0  0  0  0  0
  1  2  1  0  0  0  0
  1  6  1  0  0  0  0
  1  7  1  0  0  0  0
  2  3  1  0  0  0  0
  2  4  1  0  0  0  0
  2  5  1  0  0  0  0
M  END
$$$$
CC1c2ccccc2c2c1cccc2
 OpenBabel07182308452D

 14 16  0  0  0  0  0  0  0  0999 V2000
    5.5662   -0.3333    0.0000 C   0  0  0  0  0  0  0  0  0  0  0  0
    5.0813    0.3341    0.0000 C   0  0  0  0  0  0  0  0  0  0  0  0
    6.2336   -0.8182    0.0000 C   0  0  0  0  0  0  0  0  0  0  0  0
    4.8988   -0.8182    0.0000 C   0  0  0  0  0  0  0  0  0  0  0  0
    5.9787   -1.6028    0.0000 C   0  0  0  0  0  0  0  0  0  0  0  0
    5.1537   -1.6028    0.0000 C   0  0  0  0  0  0  0  0  0  0  0  0
    7.0714   -0.6266    0.0000 C   0  0  0  0  0  0  0  0  0  0  0  0
    4.0611   -0.6266    0.0000 C   0  0  0  0  0  0  0  0  0  0  0  0
    6.5439   -2.2503    0.0000 C   0  0  0  0  0  0  0  0  0  0  0  0
    4.5887   -2.2503    0.0000 C   0  0  0  0  0  0  0  0  0  0  0  0
    7.6513   -1.2608    0.0000 C   0  0  0  0  0  0  0  0  0  0  0  0
    3.4812   -1.2608    0.0000 C   0  0  0  0  0  0  0  0  0  0  0  0
    7.3858   -2.0781    0.0000 C   0  0  0  0  0  0  0  0  0  0  0  0
    3.7467   -2.0781    0.0000 C   0  0  0  0  0  0  0  0  0  0  0  0
  1  2  1  0  0  0  0
  1  3  1  0  0  0  0
  1  4  1  0  0  0  0
  3  5  1  0  0  0  0
  3  7  2  0  0  0  0
  4  6  1  0  0  0  0
  4  8  2  0  0  0  0
  5  6  1  0  0  0  0
  5  9  2  0  0  0  0
  6 10  2  0  0  0  0
  7 11  1  0  0  0  0
  8 12  1  0  0  0  0
  9 13  1  0  0  0  0
 10 14  1  0  0  0  0
 11 13  2  0  0  0  0
 12 14  2  0  0  0  0
M  END
$$$$
CC1CCCCC1O
 OpenBabel07182308452D

  9  9  0  0  1  0  0  0  0  0999 V2000
    1.0688   -0.4081    0.0000 C   0  0  3  0  0  0  0  0  0  0  0  0
    1.0639    0.4178    0.0000 C   0  0  3  0  0  0  0  0  0  0  0  0
    0.3498    0.8258    0.0000 C   0  0  0  0  0  0  0  0  0  0  0  0
    1.0592   -1.2341    0.0000 O   0  0  0  0  0  0  0  0  0  0  0  0
    1.7879   -0.8210    0.0000 C   0  0  0  0  0  0  0  0  0  0  0  0
    1.7830    0.8307    0.0000 C   0  0  0  0  0  0  0  0  0  0  0  0
    2.4972   -0.4081    0.0000 C   0  0  0  0  0  0  0  0  0  0  0  0
    2.4972    0.4178    0.0000 C   0  0  0  0  0  0  0  0  0  0  0  0
    0.2136   -1.7093    0.0000 H   0  0  0  0  0  0  0  0  0  0  0  0
  1  4  1  0  0  0  0
  2  1  1  0  0  0  0
  2  3  1  0  0  0  0
  4  9  1  0  0  0  0
  5  1  1  0  0  0  0
  6  2  1  0  0  0  0
  6  8  1  0  0  0  0
  7  5  1  0  0  0  0
  8  7  1  0  0  0  0
M  END
$$$$
O[C@@H]1COC[C@H]1O
 OpenBabel07182308452D

  9  9  0  0  1  0  0  0  0  0999 V2000
    3.6940    3.6075    0.0000 O   0  0  0  0  0  0  0  0  0  0  0  0
    1.6001    4.0236    0.0000 O   0  0  0  0  0  0  0  0  0  0  0  0
    2.6576    5.4739    0.0000 O   0  0  0  0  0  0  0  0  0  0  0  0
    2.4251    4.0222    0.0000 C   0  0  2  0  0  0  0  0  0  0  0  0
    2.9089    3.3538    0.0000 C   0  0  0  0  0  0  0  0  0  0  0  0
    2.9112    4.6888    0.0000 C   0  0  1  0  0  0  0  0  0  0  0  0
    3.6954    4.4325    0.0000 C   0  0  0  0  0  0  0  0  0  0  0  0
    1.1165    4.8645    0.0000 H   0  0  0  0  0  0  0  0  0  0  0  0
    3.3079    6.1936    0.0000 H   0  0  0  0  0  0  0  0  0  0  0  0
  1  5  1  0  0  0  0
  1  7  1  0  0  0  0
  2  8  1  0  0  0  0
  3  9  1  0  0  0  0
  4  2  1  1  0  0  0
  4  5  1  0  0  0  0
  4  6  1  0  0  0  0
  6  3  1  6  0  0  0
  6  7  1  0  0  0  0
M  END
$$$$
CC1CC1
 OpenBabel07182308452D

  4  4  0  0  0  0  0  0  0  0999 V2000
    1.8903   -2.0567    0.0000 C   0  0  0  0  0  0  0  0  0  0  0  0
    1.4775   -1.3424    0.0000 C   0  0  0  0  0  0  0  0  0  0  0  0
    1.0650   -2.0570    0.0000 C   0  0  0  0  0  0  0  0  0  0  0  0
    0.3507   -2.4698    0.0000 C   0  0  0  0  0  0  0  0  0  0  0  0
  2  1  1  0  0  0  0
  3  1  1  0  0  0  0
  3  2  1  0  0  0  0
  4  3  1  0  0  0  0
M  END
$$$$
Fc1cccc(c1)F
 OpenBabel07182308452D

  8  8  0  0  0  0  0  0  0  0999 V2000
    1.6500   -0.2897    0.0000 F   0  0  0  0  0  0  0  0  0  0  0  0
    3.0790   -2.7647    0.0000 F   0  0  0  0  0  0  0  0  0  0  0  0
    3.0790   -0.2897    0.0000 C   0  0  0  0  0  0  0  0  0  0  0  0
    2.3644   -0.7022    0.0000 C   0  0  0  0  0  0  0  0  0  0  0  0
    3.7934   -0.7022    0.0000 C   0  0  0  0  0  0  0  0  0  0  0  0
    2.3644   -1.5272    0.0000 C   0  0  0  0  0  0  0  0  0  0  0  0
    3.7934   -1.5272    0.0000 C   0  0  0  0  0  0  0  0  0  0  0  0
    3.0790   -1.9397    0.0000 C   0  0  0  0  0  0  0  0  0  0  0  0
  1  4  1  0  0  0  0
  2  8  1  0  0  0  0
  3  4  2  0  0  0  0
  3  5  1  0  0  0  0
  4  6  1  0  0  0  0
  5  7  2  0  0  0  0
  6  8  2  0  0  0  0
  7  8  1  0  0  0  0
M  END
$$$$
Cn1cncn1
 OpenBabel07182308452D

  6  6  0  0  0  0  0  0  0  0999 V2000
    3.7934    1.7728    0.0000 N   0  0  0  0  0  0  0  0  0  0  0  0
    4.5471    1.4371    0.0000 N   0  0  0  0  0  0  0  0  0  0  0  0
    4.6867    2.7647    0.0000 N   0  0  0  0  0  0  0  0  0  0  0  0
    3.0790    1.3603    0.0000 C   0  0  0  0  0  0  0  0  0  0  0  0
    3.8796    2.5932    0.0000 C   0  0  0  0  0  0  0  0  0  0  0  0
    5.0992    2.0503    0.0000 C   0  0  0  0  0  0  0  0  0  0  0  0
  1  2  1  0  0  0  0
  1  4  1  0  0  0  0
  1  5  1  0  0  0  0
  2  6  2  0  0  0  0
  3  5  2  0  0  0  0
  3  6  1  0  0  0  0
M  END
$$$$
O=C1SCC(=O)N1
 OpenBabel07182308452D

  8  8  0  0  1  0  0  0  0  0999 V2000
   11.4977    0.4914    0.0000 S   0  0  0  0  0  0  0  0  0  0  0  0
    9.5379    1.3379    0.0000 O   0  0  0  0  0  0  0  0  0  0  0  0
   12.4273    1.6304    0.0000 O   0  0  0  0  0  0  0  0  0  0  0  0
   10.9595    1.7129    0.0000 N   0  0  0  0  0  0  0  0  0  0  0  0
   10.6769    0.4083    0.0000 C   0  0  0  0  0  0  0  0  0  0  0  0
   10.3442    1.1632    0.0000 C   0  0  0  0  0  0  0  0  0  0  0  0
   11.6723    1.2977    0.0000 C   0  0  0  0  0  0  0  0  0  0  0  0
   10.8604    2.6924    0.0000 H   0  0  0  0  0  0  0  0  0  0  0  0
  1  5  1  0  0  0  0
  1  7  1  0  0  0  0
  2  6  2  0  0  0  0
  3  7  2  0  0  0  0
  4  6  1  0  0  0  0
  4  7  1  0  0  0  0
  4  8  1  0  0  0  0
  5  6  1  0  0  0  0
M  END
$$$$
CC1CCc2c(O1)c(C)c(c(c2C)O)C
 OpenBabel07182308452D

 16 17  0  0  1  0  0  0  0  0999 V2000
    4.9739   -1.4254    0.0000 O   0  0  0  0  0  0  0  0  0  0  0  0
    2.0929    0.2531    0.0000 O   0  0  0  0  0  0  0  0  0  0  0  0
    5.7214   -1.0015    0.0000 C   0  0  3  0  0  0  0  0  0  0  0  0
    5.7214   -0.1421    0.0000 C   0  0  0  0  0  0  0  0  0  0  0  0
    4.9739    0.2817    0.0000 C   0  0  0  0  0  0  0  0  0  0  0  0
    4.2364   -0.1594    0.0000 C   0  0  0  0  0  0  0  0  0  0  0  0
    4.2364   -0.9844    0.0000 C   0  0  0  0  0  0  0  0  0  0  0  0
    6.1312   -1.7176    0.0000 C   0  0  0  0  0  0  0  0  0  0  0  0
    3.5219    0.2531    0.0000 C   0  0  0  0  0  0  0  0  0  0  0  0
    3.5219   -1.3969    0.0000 C   0  0  0  0  0  0  0  0  0  0  0  0
    2.8075   -0.9844    0.0000 C   0  0  0  0  0  0  0  0  0  0  0  0
    2.8075   -0.1594    0.0000 C   0  0  0  0  0  0  0  0  0  0  0  0
    3.5219    1.0781    0.0000 C   0  0  0  0  0  0  0  0  0  0  0  0
    3.5219   -2.2219    0.0000 C   0  0  0  0  0  0  0  0  0  0  0  0
    2.0929   -1.3969    0.0000 C   0  0  0  0  0  0  0  0  0  0  0  0
    2.0928    1.1901    0.0000 H   0  0  0  0  0  0  0  0  0  0  0  0
  1  3  1  0  0  0  0
  1  7  1  0  0  0  0
  2 12  1  0  0  0  0
  2 16  1  0  0  0  0
  3  4  1  0  0  0  0
  3  8  1  0  0  0  0
  4  5  1  0  0  0  0
  5  6  1  0  0  0  0
  6  7  2  0  0  0  0
  6  9  1  0  0  0  0
  7 10  1  0  0  0  0
  9 12  2  0  0  0  0
  9 13  1  0  0  0  0
 10 11  2  0  0  0  0
 10 14  1  0  0  0  0
 11 12  1  0  0  0  0
 11 15  1  0  0  0  0
M  END
$$$$
N[C@@H]1[C@@H](N)CC=C[C@H]1O
 OpenBabel07182308452D

 12 12  0  0  1  0  0  0  0  0999 V2000
    3.7935    1.0313    0.0000 O   0  0  0  0  0  0  0  0  0  0  0  0
    5.2224    1.8563    0.0000 N   0  0  0  0  0  0  0  0  0  0  0  0
    6.6515    1.0313    0.0000 N   0  0  0  0  0  0  0  0  0  0  0  0
    5.2224    1.0313    0.0000 C   0  0  2  0  0  0  0  0  0  0  0  0
    5.9370    0.6188    0.0000 C   0  0  2  0  0  0  0  0  0  0  0  0
    4.5080    0.6188    0.0000 C   0  0  1  0  0  0  0  0  0  0  0  0
    5.9370   -0.2063    0.0000 C   0  0  0  0  0  0  0  0  0  0  0  0
    4.5080   -0.2063    0.0000 C   0  0  0  0  0  0  0  0  0  0  0  0
    5.2224   -0.6188    0.0000 C   0  0  0  0  0  0  0  0  0  0  0  0
    6.0750    2.3485    0.0000 H   0  0  0  0  0  0  0  0  0  0  0  0
    7.5348    0.5213    0.0000 H   0  0  0  0  0  0  0  0  0  0  0  0
    6.6515    2.0513    0.0000 H   0  0  0  0  0  0  0  0  0  0  0  0
  2 10  1  0  0  0  0
  3 11  1  0  0  0  0
  3 12  1  0  0  0  0
  4  2  1  6  0  0  0
  4  5  1  0  0  0  0
  4  6  1  0  0  0  0
  5  3  1  1  0  0  0
  5  7  1  0  0  0  0
  6  1  1  1  0  0  0
  6  8  1  0  0  0  0
  7  9  1  0  0  0  0
  8  9  2  0  0  0  0
M  END
$$$$
C[C@@H]1CC[C@H](CO1)O
 OpenBabel07182308452D

  9  9  0  0  1  0  0  0  0  0999 V2000
    4.5376   -2.4050    0.0000 O   0  0  0  0  0  0  0  0  0  0  0  0
    2.8876   -0.9760    0.0000 O   0  0  0  0  0  0  0  0  0  0  0  0
    4.1251   -1.6905    0.0000 C   0  0  0  0  0  0  0  0  0  0  0  0
    3.3001   -1.6905    0.0000 C   0  0  1  0  0  0  0  0  0  0  0  0
    2.8876   -2.4050    0.0000 C   0  0  0  0  0  0  0  0  0  0  0  0
    3.3001   -3.1195    0.0000 C   0  0  0  0  0  0  0  0  0  0  0  0
    4.1251   -3.1195    0.0000 C   0  0  1  0  0  0  0  0  0  0  0  0
    4.5376   -3.8339    0.0000 C   0  0  0  0  0  0  0  0  0  0  0  0
    3.3726   -0.1360    0.0000 H   0  0  0  0  0  0  0  0  0  0  0  0
  1  3  1  0  0  0  0
  1  7  1  0  0  0  0
  2  9  1  0  0  0  0
  3  4  1  0  0  0  0
  4  2  1  1  0  0  0
  4  5  1  0  0  0  0
  5  6  1  0  0  0  0
  6  7  1  0  0  0  0
  7  8  1  6  0  0  0
M  END
$$$$
O[C@@H]1C(C)CCO[C@H]1C
 OpenBabel07182308452D

 10 10  0  0  1  0  0  0  0  0999 V2000
    3.3001    1.1675    0.0000 O   0  0  0  0  0  0  0  0  0  0  0  0
    2.8876    3.3109    0.0000 O   0  0  0  0  0  0  0  0  0  0  0  0
    4.1251    1.1675    0.0000 C   0  0  0  0  0  0  0  0  0  0  0  0
    4.1251    2.5964    0.0000 C   0  0  3  0  0  0  0  0  0  0  0  0
    4.5376    1.8819    0.0000 C   0  0  0  0  0  0  0  0  0  0  0  0
    3.3001    2.5964    0.0000 C   0  0  2  0  0  0  0  0  0  0  0  0
    2.8876    1.8819    0.0000 C   0  0  2  0  0  0  0  0  0  0  0  0
    4.8396    3.0089    0.0000 C   0  0  0  0  0  0  0  0  0  0  0  0
    2.0625    1.8819    0.0000 C   0  0  0  0  0  0  0  0  0  0  0  0
    3.3726    4.1509    0.0000 H   0  0  0  0  0  0  0  0  0  0  0  0
  1  3  1  0  0  0  0
  1  7  1  0  0  0  0
  2 10  1  0  0  0  0
  3  5  1  0  0  0  0
  4  5  1  0  0  0  0
  4  6  1  0  0  0  0
  4  8  1  0  0  0  0
  6  2  1  6  0  0  0
  6  7  1  0  0  0  0
  7  9  1  1  0  0  0
M  END
$$$$
O=C1OC[C@@](C)(O)[C@H](O)[C@@H](C)C(=O)[C@@H](C[C@@]([C@@H]([C@H]([C@@H]([C@H]1C)O)C)O)(C)O)C
 OpenBabel07182308452D

 30 30  0  0  1  0  0  0  0  0999 V2000
    4.5376   -0.9760    0.0000 O   0  0  0  0  0  0  0  0  0  0  0  0
    4.5376    0.4529    0.0000 O   0  0  0  0  0  0  0  0  0  0  0  0
    5.9887   -2.4873    0.0000 O   0  0  0  0  0  0  0  0  0  0  0  0
    7.0127    1.8819    0.0000 O   0  0  0  0  0  0  0  0  0  0  0  0
    9.0471    1.3810    0.0000 O   0  0  0  0  0  0  0  0  0  0  0  0
    7.2057    0.9833    0.0000 O   0  0  0  0  0  0  0  0  0  0  0  0
    8.2502   -1.6905    0.0000 O   0  0  0  0  0  0  0  0  0  0  0  0
    7.0127    0.4529    0.0000 O   0  0  0  0  0  0  0  0  0  0  0  0
    5.3626   -0.9760    0.0000 C   0  0  2  0  0  0  0  0  0  0  0  0
    5.7751   -0.2615    0.0000 C   0  0  2  0  0  0  0  0  0  0  0  0
    5.7751   -1.6905    0.0000 C   0  0  1  0  0  0  0  0  0  0  0  0
    5.3626    0.4529    0.0000 C   0  0  1  0  0  0  0  0  0  0  0  0
    6.6001   -1.6905    0.0000 C   0  0  0  0  0  0  0  0  0  0  0  0
    5.7751    1.1675    0.0000 C   0  0  2  0  0  0  0  0  0  0  0  0
    7.0127   -0.9760    0.0000 C   0  0  2  0  0  0  0  0  0  0  0  0
    6.6001   -0.2615    0.0000 C   0  0  0  0  0  0  0  0  0  0  0  0
    5.1918   -2.2739    0.0000 C   0  0  0  0  0  0  0  0  0  0  0  0
    8.2502   -0.2615    0.0000 C   0  0  2  0  0  0  0  0  0  0  0  0
    8.2502    1.1675    0.0000 C   0  0  1  0  0  0  0  0  0  0  0  0
    7.8377    0.4529    0.0000 C   0  0  2  0  0  0  0  0  0  0  0  0
    7.8377   -0.9760    0.0000 C   0  0  0  0  0  0  0  0  0  0  0  0
    7.8377    1.8819    0.0000 C   0  0  0  0  0  0  0  0  0  0  0  0
    6.6001    1.1675    0.0000 C   0  0  0  0  0  0  0  0  0  0  0  0
    5.3626    1.8819    0.0000 C   0  0  0  0  0  0  0  0  0  0  0  0
    6.1876   -0.9760    0.0000 C   0  0  0  0  0  0  0  0  0  0  0  0
    9.0752   -0.2615    0.0000 C   0  0  0  0  0  0  0  0  0  0  0  0
    8.9260    0.6943    0.0000 C   0  0  0  0  0  0  0  0  0  0  0  0
    5.3029   -3.1733    0.0000 H   0  0  0  0  0  0  0  0  0  0  0  0
    9.7330    0.6951    0.0000 H   0  0  0  0  0  0  0  0  0  0  0  0
    7.3742    1.9385    0.0000 H   0  0  0  0  0  0  0  0  0  0  0  0
  3 28  1  0  0  0  0
  4 22  1  0  0  0  0
  4 23  1  0  0  0  0
  5 29  1  0  0  0  0
  6 30  1  0  0  0  0
  7 21  2  0  0  0  0
  8 23  2  0  0  0  0
  9  1  1  0  0  0  0
  9 10  1  0  0  0  0
  9 11  1  6  0  0  0
 10 12  1  0  0  0  0
 10 16  1  6  0  0  0
 11  3  1  0  0  0  0
 11 13  1  0  0  0  0
 11 17  1  6  0  0  0
 12  2  1  6  0  0  0
 12 14  1  0  0  0  0
 13 15  1  0  0  0  0
 14 23  1  0  0  0  0
 14 24  1  1  0  0  0
 15 21  1  0  0  0  0
 15 25  1  1  0  0  0
 18 20  1  0  0  0  0
 18 21  1  0  0  0  0
 18 26  1  1  0  0  0
 19  5  1  0  0  0  0
 19 22  1  0  0  0  0
 19 27  1  6  0  0  0
 20  6  1  0  0  0  0
 20 19  1  1  0  0  0
M  END
$$$$
O=C1NC[C@@H](C)OP(=O)([O-])O[C@@H]2CO[C@@H]([C@@H]2O)n2c[n+]([Co-3]345(N6C7=C(C)C8=[N+]3C(=CC3=[N+]4C(=C(C4=[N+]5[C@]([C@H]6[C@@H]([C@]7(CC1)C)C)(C)C(C)(C)[C@@H]4C)C)C([C@@H]3C)(C)C)C([C@@H]8C)(C)C)O)c1cc(C)c(cc21)C
 OpenBabel07182308452D

 73 84  0  0  0  0  0  0  0  0999 V2000
   -1.0291    0.5487    0.0000 C   0  0  0  0  0  0  0  0  0  0  0  0
   -1.1410    1.3522    0.0000 N   0  0  0  0  0  0  0  0  0  0  0  0
   -1.1410    3.0503    0.0000 N   0  3  0  0  0  0  0  0  0  0  0  0
   -1.0291    3.8539    0.0000 C   0  0  0  0  0  0  0  0  0  0  0  0
   -1.7415    4.2306    0.0000 C   0  0  1  0  0  0  0  0  0  0  0  0
   -1.8599    5.0471    0.0000 C   0  0  0  0  0  0  0  0  0  0  0  0
    0.4120    3.8539    0.0000 C   0  0  0  0  0  0  0  0  0  0  0  0
    0.5363    3.0503    0.0000 N   0  3  0  0  0  0  0  0  0  0  0  0
    1.3605    2.9012    0.0000 C   0  0  0  0  0  0  0  0  0  0  0  0
    1.7746    2.2012    0.0000 C   0  0  0  0  0  0  0  0  0  0  0  0
    1.3605    1.4971    0.0000 C   0  0  0  0  0  0  0  0  0  0  0  0
    0.5363    1.3522    0.0000 N   0  3  0  0  0  0  0  0  0  0  0  0
    0.4120    0.5487    0.0000 C   0  0  0  0  0  0  0  0  0  0  0  0
    1.1493    0.1677    0.0000 C   0  0  1  0  0  0  0  0  0  0  0  0
    1.2716   -0.6481    0.0000 C   0  0  0  0  0  0  0  0  0  0  0  0
    1.7415    0.7475    0.0000 C   0  0  0  0  0  0  0  0  0  0  0  0
    2.3797    0.2246    0.0000 C   0  0  0  0  0  0  0  0  0  0  0  0
    2.5134    1.0387    0.0000 C   0  0  0  0  0  0  0  0  0  0  0  0
   -0.2919    4.2637    0.0000 C   0  0  0  0  0  0  0  0  0  0  0  0
   -0.2919    5.0887    0.0000 C   0  0  0  0  0  0  0  0  0  0  0  0
   -0.2919    0.1345    0.0000 C   0  0  0  0  0  0  0  0  0  0  0  0
   -0.2919   -0.6904    0.0000 C   0  0  0  0  0  0  0  0  0  0  0  0
   -1.9527    1.4971    0.0000 C   0  0  1  0  0  0  0  0  0  0  0  0
   -2.7496    1.7106    0.0000 H   0  0  0  0  0  0  0  0  0  0  0  0
   -1.9527    2.9260    0.0000 C   0  0  2  0  0  0  0  0  0  0  0  0
   -2.7496    2.7125    0.0000 C   0  0  0  0  0  0  0  0  0  0  0  0
   -2.4560   -1.0697    0.0000 C   0  0  0  0  0  0  0  0  0  0  0  0
   -3.1704   -1.4822    0.0000 C   0  0  0  0  0  0  0  0  0  0  0  0
   -3.8849   -1.0697    0.0000 O   0  0  0  0  0  0  0  0  0  0  0  0
   -3.1704   -2.3072    0.0000 N   0  0  0  0  0  0  0  0  0  0  0  0
   -3.8849   -2.7197    0.0000 C   0  0  0  0  0  0  0  0  0  0  0  0
   -3.8849   -3.5447    0.0000 C   0  0  2  0  0  0  0  0  0  0  0  0
   -2.4560   -0.2447    0.0000 C   0  0  0  0  0  0  0  0  0  0  0  0
   -1.7415    0.1677    0.0000 C   0  0  1  0  0  0  0  0  0  0  0  0
   -1.7415   -0.6572    0.0000 C   0  0  0  0  0  0  0  0  0  0  0  0
    2.1181   -3.5722    0.0000 C   0  0  0  0  0  0  0  0  0  0  0  0
    1.2931   -5.0011    0.0000 C   0  0  0  0  0  0  0  0  0  0  0  0
    1.2931   -3.5722    0.0000 C   0  0  0  0  0  0  0  0  0  0  0  0
   -0.0125   -3.2947    0.0000 C   0  0  0  0  0  0  0  0  0  0  0  0
    0.8806   -4.2867    0.0000 C   0  0  0  0  0  0  0  0  0  0  0  0
    0.7412   -2.9591    0.0000 N   0  3  0  0  0  0  0  0  0  0  0  0
    0.0736   -4.1151    0.0000 N   0  0  0  0  0  0  0  0  0  0  0  0
    2.5306   -4.2867    0.0000 C   0  0  0  0  0  0  0  0  0  0  0  0
    3.3556   -4.2867    0.0000 C   0  0  0  0  0  0  0  0  0  0  0  0
    2.1181   -5.0011    0.0000 C   0  0  0  0  0  0  0  0  0  0  0  0
    2.5306   -5.7156    0.0000 C   0  0  0  0  0  0  0  0  0  0  0  0
   -0.5394   -4.6672    0.0000 C   0  0  1  0  0  0  0  0  0  0  0  0
   -0.4531   -5.4878    0.0000 O   0  0  0  0  0  0  0  0  0  0  0  0
   -1.2068   -5.8232    0.0000 C   0  0  0  0  0  0  0  0  0  0  0  0
   -1.3464   -4.4956    0.0000 C   0  0  2  0  0  0  0  0  0  0  0  0
   -1.6819   -3.7420    0.0000 O   0  0  0  0  0  0  0  0  0  0  0  0
   -1.7589   -5.2101    0.0000 C   0  0  2  0  0  0  0  0  0  0  0  0
   -2.5793   -5.2964    0.0000 O   0  0  0  0  0  0  0  0  0  0  0  0
   -0.3218    2.2508    0.0000 Co  0  7  0  0  0  0  0  0  0  0  0  0
   -0.8143    5.0655    0.0000 O   0  0  0  0  0  0  0  0  0  0  0  0
   -0.5279    5.6656    0.0000 H   0  0  0  0  0  0  0  0  0  0  0  0
    1.7415    3.6508    0.0000 C   0  0  1  0  0  0  0  0  0  0  0  0
    2.4560    4.0633    0.0000 C   0  0  0  0  0  0  0  0  0  0  0  0
   -2.3337    0.7475    0.0000 C   0  0  1  0  0  0  0  0  0  0  0  0
   -3.0482    0.3350    0.0000 C   0  0  0  0  0  0  0  0  0  0  0  0
   -2.3337    3.6508    0.0000 C   0  0  0  0  0  0  0  0  0  0  0  0
   -3.0482    3.2384    0.0000 C   0  0  0  0  0  0  0  0  0  0  0  0
   -2.9172    4.2342    0.0000 C   0  0  0  0  0  0  0  0  0  0  0  0
    1.1493    4.2306    0.0000 C   0  0  0  0  0  0  0  0  0  0  0  0
    1.8638    4.6431    0.0000 C   0  0  0  0  0  0  0  0  0  0  0  0
    1.1493    5.0556    0.0000 C   0  0  0  0  0  0  0  0  0  0  0  0
   -3.1627   -4.7130    0.0000 P   0  0  3  0  0  0  0  0  0  0  0  0
   -3.1627   -3.8880    0.0000 O   0  0  0  0  0  0  0  0  0  0  0  0
   -3.5752   -5.4275    0.0000 O   0  0  0  0  0  0  0  0  0  0  0  0
   -4.5994   -3.9572    0.0000 C   0  0  0  0  0  0  0  0  0  0  0  0
   -3.9596   -4.9265    0.0000 O   0  5  0  0  0  0  0  0  0  0  0  0
   -2.3178   -2.7995    0.0000 H   0  0  0  0  0  0  0  0  0  0  0  0
   -1.1117   -2.9573    0.0000 H   0  0  0  0  0  0  0  0  0  0  0  0
  1  2  1  0  0  0  0
  2 54  1  0  0  0  0
  3  4  2  0  0  0  0
  3 54  1  0  0  0  0
  4 19  1  0  0  0  0
  5  4  1  0  0  0  0
  5  6  1  6  0  0  0
  7  8  1  0  0  0  0
  7 64  1  0  0  0  0
  8  9  2  0  0  0  0
  8 54  1  0  0  0  0
  9 10  1  0  0  0  0
  9 57  1  0  0  0  0
 10 11  2  0  0  0  0
 11 12  1  0  0  0  0
 11 16  1  0  0  0  0
 12 13  2  0  0  0  0
 12 54  1  0  0  0  0
 13 14  1  0  0  0  0
 14 15  1  6  0  0  0
 14 16  1  0  0  0  0
 16 17  1  0  0  0  0
 16 18  1  0  0  0  0
 19  7  2  0  0  0  0
 19 20  1  0  0  0  0
 21  1  2  0  0  0  0
 21 22  1  0  0  0  0
 21 13  1  0  0  0  0
 23  2  1  0  0  0  0
 23 25  1  6  0  0  0
 23 24  1  0  0  0  0
 25  3  1  0  0  0  0
 25 61  1  0  0  0  0
 25 26  1  6  0  0  0
 27 28  1  0  0  0  0
 28 30  1  0  0  0  0
 28 29  2  0  0  0  0
 30 72  1  0  0  0  0
 31 30  1  0  0  0  0
 32 31  1  0  0  0  0
 32 68  1  0  0  0  0
 32 70  1  6  0  0  0
 33 27  1  0  0  0  0
 34  1  1  0  0  0  0
 34 33  1  0  0  0  0
 34 35  1  1  0  0  0
 36 38  2  0  0  0  0
 36 43  1  0  0  0  0
 37 45  1  0  0  0  0
 38 41  1  0  0  0  0
 38 40  1  0  0  0  0
 39 42  1  0  0  0  0
 39 41  2  0  0  0  0
 40 37  2  0  0  0  0
 41 54  1  0  0  0  0
 42 40  1  0  0  0  0
 43 44  1  0  0  0  0
 45 43  2  0  0  0  0
 45 46  1  0  0  0  0
 47 42  1  0  0  0  0
 47 50  1  0  0  0  0
 47 48  1  1  0  0  0
 49 48  1  0  0  0  0
 50 52  1  0  0  0  0
 50 51  1  1  0  0  0
 51 73  1  0  0  0  0
 52 49  1  1  0  0  0
 52 53  1  0  0  0  0
 53 67  1  0  0  0  0
 54 55  1  0  0  0  0
 55 56  1  0  0  0  0
 57 64  1  0  0  0  0
 57 58  1  6  0  0  0
 59 23  1  1  0  0  0
 59 34  1  0  0  0  0
 59 60  1  0  0  0  0
 61  5  1  0  0  0  0
 61 62  1  0  0  0  0
 61 63  1  0  0  0  0
 64 65  1  0  0  0  0
 64 66  1  0  0  0  0
 67 68  1  0  0  0  0
 67 69  2  0  0  0  0
 67 71  1  0  0  0  0
M  CHG  6   3   1   8   1  12   1  41   1  54  -3  71  -1
M  END
$$$$
Cn1cnc2c1c(=O)n(C)c(=O)n2C
 OpenBabel07182308452D

 14 15  0  0  0  0  0  0  0  0999 V2000
    3.0791    1.6500    0.0000 O   0  0  0  0  0  0  0  0  0  0  0  0
    1.6500   -0.8250    0.0000 O   0  0  0  0  0  0  0  0  0  0  0  0
    3.0791   -0.8250    0.0000 N   0  0  0  0  0  0  0  0  0  0  0  0
    4.5741    0.6639    0.0000 N   0  0  0  0  0  0  0  0  0  0  0  0
    2.3645    0.4125    0.0000 N   0  0  0  0  0  0  0  0  0  0  0  0
    4.5741   -0.6639    0.0000 N   0  0  0  0  0  0  0  0  0  0  0  0
    3.7935    0.4125    0.0000 C   0  0  0  0  0  0  0  0  0  0  0  0
    3.7935   -0.4125    0.0000 C   0  0  0  0  0  0  0  0  0  0  0  0
    3.0791    0.8250    0.0000 C   0  0  0  0  0  0  0  0  0  0  0  0
    2.3645   -0.4125    0.0000 C   0  0  0  0  0  0  0  0  0  0  0  0
    5.0556    0.0000    0.0000 C   0  0  0  0  0  0  0  0  0  0  0  0
    3.0791   -1.6500    0.0000 C   0  0  0  0  0  0  0  0  0  0  0  0
    4.8305    1.4482    0.0000 C   0  0  0  0  0  0  0  0  0  0  0  0
    1.6500    0.8250    0.0000 C   0  0  0  0  0  0  0  0  0  0  0  0
  1  9  2  0  0  0  0
  2 10  2  0  0  0  0
  3  8  1  0  0  0  0
  3 10  1  0  0  0  0
  3 12  1  0  0  0  0
  4  7  1  0  0  0  0
  4 11  1  0  0  0  0
  4 13  1  0  0  0  0
  5  9  1  0  0  0  0
  5 10  1  0  0  0  0
  5 14  1  0  0  0  0
  6  8  1  0  0  0  0
  6 11  2  0  0  0  0
  7  8  2  0  0  0  0
  7  9  1  0  0  0  0
M  END
$$$$
Cc1nn(c2c1nc[nH]c2=O)C
 OpenBabel07182308452D

 13 14  0  0  0  0  0  0  0  0999 V2000
    1.0929   -0.0345    0.0000 C   0  0  0  0  0  0  0  0  0  0  0  0
    1.8045   -0.4468    0.0000 N   0  0  0  0  0  0  0  0  0  0  0  0
    1.0863    0.7903    0.0000 N   0  0  0  0  0  0  0  0  0  0  0  0
    2.5230   -0.0378    0.0000 C   0  0  0  0  0  0  0  0  0  0  0  0
    1.8045    1.2029    0.0000 C   0  0  0  0  0  0  0  0  0  0  0  0
    2.5607    0.7869    0.0000 C   0  0  0  0  0  0  0  0  0  0  0  0
    3.3063   -0.2887    0.0000 C   0  0  0  0  0  0  0  0  0  0  0  0
    3.3031    1.0481    0.0000 N   0  0  0  0  0  0  0  0  0  0  0  0
    3.7944    0.3815    0.0000 N   0  0  0  0  0  0  0  0  0  0  0  0
    3.5573   -1.0689    0.0000 C   0  0  0  0  0  0  0  0  0  0  0  0
    3.5608    1.8352    0.0000 C   0  0  0  0  0  0  0  0  0  0  0  0
    1.7969    2.0210    0.0000 O   0  0  0  0  0  0  0  0  0  0  0  0
    0.2323    1.2801    0.0000 H   0  0  0  0  0  0  0  0  0  0  0  0
  1  2  2  0  0  0  0
  1  3  1  0  0  0  0
  2  4  1  0  0  0  0
  3  5  1  0  0  0  0
  3 13  1  0  0  0  0
  4  6  2  0  0  0  0
  4  7  1  0  0  0  0
  5  6  1  0  0  0  0
  5 12  2  0  0  0  0
  6  8  1  0  0  0  0
  7  9  2  0  0  0  0
  7 10  1  0  0  0  0
  8 11  1  0  0  0  0
  8  9  1  0  0  0  0
M  END
$$$$
O=S=O
 OpenBabel07182308452D

  3  2  0  0  0  0  0  0  0  0999 V2000
   -1.7596   -0.0378    0.0000 S   0  0  0  0  0  0  0  0  0  0  0  0
   -1.1754    0.5499    0.0000 O   0  0  0  0  0  0  0  0  0  0  0  0
   -2.3509    0.5499    0.0000 O   0  0  0  0  0  0  0  0  0  0  0  0
  1  2  2  0  0  0  0
  1  3  2  0  0  0  0
M  END
$$$$
CN1CCNCC1
 OpenBabel07182308452D

  7  7  0  0  0  0  0  0  0  0999 V2000
   -2.4712   -0.4468    0.0000 N   0  0  0  0  0  0  0  0  0  0  0  0
   -2.4712   -1.2717    0.0000 C   0  0  0  0  0  0  0  0  0  0  0  0
   -3.1861   -0.0309    0.0000 C   0  0  0  0  0  0  0  0  0  0  0  0
   -3.1861   -1.6843    0.0000 C   0  0  0  0  0  0  0  0  0  0  0  0
   -3.9009   -0.4468    0.0000 C   0  0  0  0  0  0  0  0  0  0  0  0
   -3.9009   -1.2717    0.0000 N   0  0  0  0  0  0  0  0  0  0  0  0
   -4.6125   -1.6878    0.0000 C   0  0  0  0  0  0  0  0  0  0  0  0
  1  2  1  0  0  0  0
  1  3  1  0  0  0  0
  2  4  1  0  0  0  0
  3  5  1  0  0  0  0
  4  6  1  0  0  0  0
  5  6  1  0  0  0  0
  6  7  1  0  0  0  0
M  END
$$$$
CS(=O)(=O)N
 OpenBabel07182308452D

  6  5  0  0  1  0  0  0  0  0999 V2000
    5.9370    5.1564    0.0000 S   0  0  0  0  0  0  0  0  0  0  0  0
    6.3495    4.4419    0.0000 O   0  0  0  0  0  0  0  0  0  0  0  0
    5.5245    5.8708    0.0000 O   0  0  0  0  0  0  0  0  0  0  0  0
    5.2224    4.7439    0.0000 N   0  0  0  0  0  0  0  0  0  0  0  0
    6.6515    5.5689    0.0000 C   0  0  0  0  0  0  0  0  0  0  0  0
    4.3698    5.2362    0.0000 H   0  0  0  0  0  0  0  0  0  0  0  0
  1  2  2  0  0  0  0
  1  3  2  0  0  0  0
  1  4  1  0  0  0  0
  1  5  1  0  0  0  0
  4  6  1  0  0  0  0
M  END
$$$$
CN(C)C
 OpenBabel07182308452D

  4  3  0  0  1  0  0  0  0  0999 V2000
    4.5080    0.2063    0.0000 N   0  0  0  0  0  0  0  0  0  0  0  0
    4.5080    1.0313    0.0000 C   0  0  0  0  0  0  0  0  0  0  0  0
    3.7935   -0.2063    0.0000 C   0  0  0  0  0  0  0  0  0  0  0  0
    5.2224   -0.2063    0.0000 C   0  0  0  0  0  0  0  0  0  0  0  0
  1  2  1  0  0  0  0
  1  3  1  0  0  0  0
  1  4  1  0  0  0  0
M  END
$$$$
Nc1ccnc(n1)N
 OpenBabel07182308452D

 12 12  0  0  0  0  0  0  0  0999 V2000
    4.2365   -1.5222    0.0000 N   0  0  0  0  0  0  0  0  0  0  0  0
    2.8075   -1.5222    0.0000 N   0  0  0  0  0  0  0  0  0  0  0  0
    2.0930   -0.2846    0.0000 N   0  0  0  0  0  0  0  0  0  0  0  0
    3.5220   -2.7597    0.0000 N   0  0  0  0  0  0  0  0  0  0  0  0
    3.5220   -0.2846    0.0000 C   0  0  0  0  0  0  0  0  0  0  0  0
    4.2365   -0.6971    0.0000 C   0  0  0  0  0  0  0  0  0  0  0  0
    2.8075   -0.6971    0.0000 C   0  0  0  0  0  0  0  0  0  0  0  0
    3.5220   -1.9347    0.0000 C   0  0  0  0  0  0  0  0  0  0  0  0
    2.0930    0.6999    0.0000 H   0  0  0  0  0  0  0  0  0  0  0  0
    1.2404   -0.7769    0.0000 H   0  0  0  0  0  0  0  0  0  0  0  0
    2.6694   -3.2519    0.0000 H   0  0  0  0  0  0  0  0  0  0  0  0
    4.3746   -3.2519    0.0000 H   0  0  0  0  0  0  0  0  0  0  0  0
  1  6  1  0  0  0  0
  1  8  2  0  0  0  0
  2  7  2  0  0  0  0
  2  8  1  0  0  0  0
  3  7  1  0  0  0  0
  3  9  1  0  0  0  0
  3 10  1  0  0  0  0
  4  8  1  0  0  0  0
  4 11  1  0  0  0  0
  4 12  1  0  0  0  0
  5  6  2  0  0  0  0
  5  7  1  0  0  0  0
M  END
$$$$
O[C@H]1CC[C@@H]2[C@H](C1)CN1[C@H](C2)c2[nH]c3c(c2CC1)cccc3
 OpenBabel07182308452D

 26 30  0  0  0  0  0  0  0  0999 V2000
   -0.7522    0.6227    0.0000 C   0  0  1  0  0  0  0  0  0  0  0  0
   -0.7522   -0.2022    0.0000 C   0  0  2  0  0  0  0  0  0  0  0  0
   -1.4667   -0.6147    0.0000 C   0  0  0  0  0  0  0  0  0  0  0  0
   -1.4667    1.0352    0.0000 C   0  0  0  0  0  0  0  0  0  0  0  0
   -2.1812    0.6227    0.0000 N   0  0  3  0  0  0  0  0  0  0  0  0
   -2.1812   -0.2022    0.0000 C   0  0  1  0  0  0  0  0  0  0  0  0
   -2.8956    1.0352    0.0000 C   0  0  0  0  0  0  0  0  0  0  0  0
   -3.6101    0.6227    0.0000 C   0  0  0  0  0  0  0  0  0  0  0  0
   -0.0378    1.0352    0.0000 C   0  0  0  0  0  0  0  0  0  0  0  0
   -2.8956   -0.6147    0.0000 C   0  0  0  0  0  0  0  0  0  0  0  0
   -3.6101   -0.2022    0.0000 C   0  0  0  0  0  0  0  0  0  0  0  0
   -3.0672   -1.4217    0.0000 N   0  0  0  0  0  0  0  0  0  0  0  0
   -3.8876   -1.5079    0.0000 C   0  0  0  0  0  0  0  0  0  0  0  0
   -4.2232   -0.7542    0.0000 C   0  0  0  0  0  0  0  0  0  0  0  0
   -4.3726   -2.1753    0.0000 C   0  0  0  0  0  0  0  0  0  0  0  0
   -5.0437   -0.6680    0.0000 C   0  0  0  0  0  0  0  0  0  0  0  0
   -5.5286   -1.3354    0.0000 C   0  0  0  0  0  0  0  0  0  0  0  0
   -2.1812   -1.0272    0.0000 H   0  0  0  0  0  0  0  0  0  0  0  0
   -0.7522   -1.0272    0.0000 H   0  0  0  0  0  0  0  0  0  0  0  0
   -0.7522    1.4477    0.0000 H   0  0  0  0  0  0  0  0  0  0  0  0
   -0.0378   -0.6147    0.0000 C   0  0  0  0  0  0  0  0  0  0  0  0
    0.6767   -0.2022    0.0000 C   0  0  0  0  0  0  0  0  0  0  0  0
   -5.1931   -2.0891    0.0000 C   0  0  0  0  0  0  0  0  0  0  0  0
    0.6767    0.6227    0.0000 C   0  0  2  0  0  0  0  0  0  0  0  0
    1.3911    1.0352    0.0000 O   0  0  0  0  0  0  0  0  0  0  0  0
   -2.4085   -2.1534    0.0000 H   0  0  0  0  0  0  0  0  0  0  0  0
  1 20  1  0  0  0  0
  1  2  1  6  0  0  0
  1  4  1  0  0  0  0
  2 21  1  0  0  0  0
  2 19  1  6  0  0  0
  3  2  1  0  0  0  0
  5  4  1  0  0  0  0
  5  7  1  0  0  0  0
  6  3  1  0  0  0  0
  6  5  1  1  0  0  0
  6 18  1  0  0  0  0
  7  8  1  0  0  0  0
  8 11  1  0  0  0  0
  9  1  1  0  0  0  0
 10  6  1  0  0  0  0
 11 10  2  0  0  0  0
 12 10  1  0  0  0  0
 12 13  1  0  0  0  0
 12 26  1  0  0  0  0
 13 14  2  0  0  0  0
 14 11  1  0  0  0  0
 14 16  1  0  0  0  0
 15 13  1  0  0  0  0
 16 17  2  0  0  0  0
 21 22  1  0  0  0  0
 22 24  1  0  0  0  0
 23 15  2  0  0  0  0
 23 17  1  0  0  0  0
 24  9  1  0  0  0  0
 24 25  1  1  0  0  0
M  END
$$$$
C[C@H]1CN(C)[C@H](C)[C@@H](O)[C@](C)(O)COC(=O)[C@@H]([C@H]([C@@H]([C@H]([C@](C1)(C)O)O)C)O)C
 OpenBabel07182308452D

 31 31  0  0  0  0  0  0  0  0999 V2000
   -3.2657    2.7280    0.0000 N   0  0  0  0  0  0  0  0  0  0  0  0
   -1.7679    2.7107    0.0000 C   0  0  0  0  0  0  0  0  0  0  0  0
   -3.6782    2.0135    0.0000 C   0  0  1  0  0  0  0  0  0  0  0  0
   -1.3554    1.9962    0.0000 C   0  0  1  0  0  0  0  0  0  0  0  0
   -1.7679    1.2818    0.0000 C   0  0  0  0  0  0  0  0  0  0  0  0
   -1.1845    0.6984    0.0000 C   0  0  2  0  0  0  0  0  0  0  0  0
   -1.1845   -0.1266    0.0000 C   0  0  1  0  0  0  0  0  0  0  0  0
   -1.7679   -0.7100    0.0000 C   0  0  2  0  0  0  0  0  0  0  0  0
   -1.7679   -1.5350    0.0000 C   0  0  1  0  0  0  0  0  0  0  0  0
   -2.4823   -1.9475    0.0000 C   0  0  2  0  0  0  0  0  0  0  0  0
   -3.1968   -1.5350    0.0000 C   0  0  0  0  0  0  0  0  0  0  0  0
   -3.1968   -0.7100    0.0000 O   0  0  0  0  0  0  0  0  0  0  0  0
   -3.9113   -0.2975    0.0000 C   0  0  0  0  0  0  0  0  0  0  0  0
   -3.9113    0.5275    0.0000 C   0  0  2  0  0  0  0  0  0  0  0  0
   -3.3279    1.1109    0.0000 C   0  0  2  0  0  0  0  0  0  0  0  0
   -3.2657    3.5530    0.0000 C   0  0  0  0  0  0  0  0  0  0  0  0
   -4.4751    2.2270    0.0000 C   0  0  0  0  0  0  0  0  0  0  0  0
   -2.5310    0.8974    0.0000 O   0  0  0  0  0  0  0  0  0  0  0  0
   -4.6258    0.9400    0.0000 O   0  0  0  0  0  0  0  0  0  0  0  0
   -2.4823   -2.7725    0.0000 C   0  0  0  0  0  0  0  0  0  0  0  0
   -0.3876    0.9119    0.0000 O   0  0  0  0  0  0  0  0  0  0  0  0
   -0.5585    2.2097    0.0000 C   0  0  0  0  0  0  0  0  0  0  0  0
   -0.4700    0.2859    0.0000 C   0  0  0  0  0  0  0  0  0  0  0  0
   -4.6258    0.1150    0.0000 C   0  0  0  0  0  0  0  0  0  0  0  0
   -0.6394   -3.2068    0.0000 O   0  0  0  0  0  0  0  0  0  0  0  0
    0.5612   -0.6851    0.0000 O   0  0  0  0  0  0  0  0  0  0  0  0
   -3.9113   -1.9475    0.0000 O   0  0  0  0  0  0  0  0  0  0  0  0
   -2.4824   -0.2975    0.0000 C   0  0  0  0  0  0  0  0  0  0  0  0
   -2.2799   -0.0395    0.0000 H   0  0  0  0  0  0  0  0  0  0  0  0
   -4.6258    1.9100    0.0000 H   0  0  0  0  0  0  0  0  0  0  0  0
    0.2983    0.2260    0.0000 H   0  0  0  0  0  0  0  0  0  0  0  0
  1  2  1  0  0  0  0
  1  3  1  0  0  0  0
  1 16  1  0  0  0  0
  2  4  1  0  0  0  0
  3 17  1  1  0  0  0
  4  5  1  0  0  0  0
  4 22  1  6  0  0  0
  5  6  1  0  0  0  0
  6 21  1  0  0  0  0
  6 23  1  6  0  0  0
  7  6  1  6  0  0  0
  7  8  1  0  0  0  0
  7 26  1  0  0  0  0
  8  9  1  0  0  0  0
  8 28  1  6  0  0  0
  9 10  1  0  0  0  0
  9 25  1  6  0  0  0
 10 11  1  0  0  0  0
 10 20  1  1  0  0  0
 11 12  1  0  0  0  0
 11 27  2  0  0  0  0
 12 13  1  0  0  0  0
 13 14  1  0  0  0  0
 14 19  1  0  0  0  0
 14 24  1  6  0  0  0
 15 14  1  1  0  0  0
 15  3  1  0  0  0  0
 15 18  1  0  0  0  0
 18 29  1  0  0  0  0
 19 30  1  0  0  0  0
 21 31  1  0  0  0  0
M  END
$$$$
O[C@@H]1[C@@H](C)CCO[C@H]1C
 OpenBabel07182308452D

 10 10  0  0  0  0  0  0  0  0999 V2000
   -0.6394   -4.0318    0.0000 C   0  0  0  0  0  0  0  0  0  0  0  0
    0.1856   -4.0318    0.0000 C   0  0  0  0  0  0  0  0  0  0  0  0
   -1.0519   -4.7463    0.0000 O   0  0  0  0  0  0  0  0  0  0  0  0
   -0.6395   -5.4608    0.0000 C   0  0  2  0  0  0  0  0  0  0  0  0
    0.1855   -5.4608    0.0000 C   0  0  1  0  0  0  0  0  0  0  0  0
    0.5981   -4.7463    0.0000 C   0  0  1  0  0  0  0  0  0  0  0  0
   -1.2228   -6.0441    0.0000 C   0  0  0  0  0  0  0  0  0  0  0  0
    1.1814   -5.3296    0.0000 C   0  0  0  0  0  0  0  0  0  0  0  0
    0.5980   -6.1752    0.0000 O   0  0  0  0  0  0  0  0  0  0  0  0
    0.1130   -7.0153    0.0000 H   0  0  0  0  0  0  0  0  0  0  0  0
  1  3  1  0  0  0  0
  2  1  1  0  0  0  0
  2  6  1  0  0  0  0
  3  4  1  0  0  0  0
  4  5  1  0  0  0  0
  4  7  1  6  0  0  0
  5  6  1  0  0  0  0
  5  9  1  1  0  0  0
  6  8  1  6  0  0  0
  9 10  1  0  0  0  0
M  END
$$$$
CN1CCc2c(C1)ccs2
 OpenBabel07182308452D

 10 11  0  0  1  0  0  0  0  0999 V2000
    6.7176   -1.0764    0.0000 S   0  0  0  0  0  0  0  0  0  0  0  0
    4.5080    0.0000    0.0000 N   0  0  0  0  0  0  0  0  0  0  0  0
    4.5080   -0.8250    0.0000 C   0  0  0  0  0  0  0  0  0  0  0  0
    5.2224    0.4125    0.0000 C   0  0  0  0  0  0  0  0  0  0  0  0
    5.2224   -1.2375    0.0000 C   0  0  0  0  0  0  0  0  0  0  0  0
    5.9370    0.0000    0.0000 C   0  0  0  0  0  0  0  0  0  0  0  0
    5.9370   -0.8250    0.0000 C   0  0  0  0  0  0  0  0  0  0  0  0
    3.7935    0.4125    0.0000 C   0  0  0  0  0  0  0  0  0  0  0  0
    6.7176    0.2514    0.0000 C   0  0  0  0  0  0  0  0  0  0  0  0
    7.1991   -0.4125    0.0000 C   0  0  0  0  0  0  0  0  0  0  0  0
  1  7  1  0  0  0  0
  1 10  1  0  0  0  0
  2  3  1  0  0  0  0
  2  4  1  0  0  0  0
  2  8  1  0  0  0  0
  3  5  1  0  0  0  0
  4  6  1  0  0  0  0
  5  7  1  0  0  0  0
  6  7  2  0  0  0  0
  6  9  1  0  0  0  0
  9 10  2  0  0  0  0
M  END
$$$$
C1C[C@@H]2CC[C@H](C1)[N+]12CCCC1
 OpenBabel07182308452D

 14 16  0  0  0  0  0  0  0  0999 V2000
   -2.0660    1.2111    0.0000 N   0  3  0  0  0  0  0  0  0  0  0  0
   -1.5041    0.7653    0.0000 C   0  0  1  0  0  0  0  0  0  0  0  0
   -1.9256    0.3874    0.0000 C   0  0  2  0  0  0  0  0  0  0  0  0
   -0.4189   -0.0436    0.0000 C   0  0  0  0  0  0  0  0  0  0  0  0
   -0.9422    0.3874    0.0000 C   0  0  0  0  0  0  0  0  0  0  0  0
   -0.5642    0.7848    0.0000 C   0  0  0  0  0  0  0  0  0  0  0  0
   -2.4535   -0.3294    0.0000 C   0  0  0  0  0  0  0  0  0  0  0  0
   -1.8238    0.0485    0.0000 C   0  0  0  0  0  0  0  0  0  0  0  0
   -1.8141    1.9960    0.0000 C   0  0  0  0  0  0  0  0  0  0  0  0
   -2.8894    1.2111    0.0000 C   0  0  0  0  0  0  0  0  0  0  0  0
   -3.1464    1.9960    0.0000 C   0  0  0  0  0  0  0  0  0  0  0  0
   -2.4778    2.4802    0.0000 C   0  0  0  0  0  0  0  0  0  0  0  0
   -2.7283    0.5779    0.0000 H   0  0  0  0  0  0  0  0  0  0  0  0
   -1.2906    1.5622    0.0000 H   0  0  0  0  0  0  0  0  0  0  0  0
  2  1  1  0  0  0  0
  2 14  1  6  0  0  0
  3  1  1  0  0  0  0
  3 13  1  1  0  0  0
  4  6  1  0  0  0  0
  5  3  1  0  0  0  0
  5  4  1  0  0  0  0
  6  2  1  0  0  0  0
  7  3  1  0  0  0  0
  8  2  1  0  0  0  0
  8  7  1  0  0  0  0
  9  1  1  0  0  0  0
 10  1  1  0  0  0  0
 11 10  1  0  0  0  0
 11 12  1  0  0  0  0
 12  9  1  0  0  0  0
M  CHG  1   1   1
M  END
$$$$
C1C2CC3CC1CC(C2)C3
 OpenBabel07182308452D

 10 12  0  0  0  0  0  0  0  0999 V2000
    4.0407   -3.4580    0.0000 C   0  0  3  0  0  0  0  0  0  0  0  0
    4.1604   -3.8170    0.0000 C   0  0  3  0  0  0  0  0  0  0  0  0
    5.4205   -3.4580    0.0000 C   0  0  3  0  0  0  0  0  0  0  0  0
    4.7306   -2.2632    0.0000 C   0  0  3  0  0  0  0  0  0  0  0  0
    3.3504   -3.8563    0.0000 C   0  0  0  0  0  0  0  0  0  0  0  0
    4.7306   -3.7078    0.0000 C   0  0  0  0  0  0  0  0  0  0  0  0
    4.0407   -2.6615    0.0000 C   0  0  0  0  0  0  0  0  0  0  0  0
    4.9076   -4.2103    0.0000 C   0  0  0  0  0  0  0  0  0  0  0  0
    4.1604   -2.9546    0.0000 C   0  0  0  0  0  0  0  0  0  0  0  0
    5.4205   -2.6615    0.0000 C   0  0  0  0  0  0  0  0  0  0  0  0
  1  5  1  0  0  0  0
  1  6  1  0  0  0  0
  1  7  1  0  0  0  0
  2  5  1  0  0  0  0
  2  8  1  0  0  0  0
  2  9  1  0  0  0  0
  3  6  1  0  0  0  0
  3  8  1  0  0  0  0
  3 10  1  0  0  0  0
  4  7  1  0  0  0  0
  4  9  1  0  0  0  0
  4 10  1  0  0  0  0
M  END
$$$$
c1ccc2c(c1)cccc2
 OpenBabel07182308452D

 10 11  0  0  0  0  0  0  0  0999 V2000
    3.3010   -0.6975    0.0000 C   0  0  0  0  0  0  0  0  0  0  0  0
    2.7177   -0.1142    0.0000 C   0  0  0  0  0  0  0  0  0  0  0  0
    4.0979   -0.4840    0.0000 C   0  0  0  0  0  0  0  0  0  0  0  0
    2.9312    0.6828    0.0000 C   0  0  0  0  0  0  0  0  0  0  0  0
    4.3114    0.3129    0.0000 C   0  0  0  0  0  0  0  0  0  0  0  0
    3.7280    0.8963    0.0000 C   0  0  0  0  0  0  0  0  0  0  0  0
    2.3142    1.2810    0.0000 C   0  0  0  0  0  0  0  0  0  0  0  0
    3.9633    1.7228    0.0000 C   0  0  0  0  0  0  0  0  0  0  0  0
    2.5302    2.1127    0.0000 C   0  0  0  0  0  0  0  0  0  0  0  0
    3.3603    2.3351    0.0000 C   0  0  0  0  0  0  0  0  0  0  0  0
  1  2  2  0  0  0  0
  1  3  1  0  0  0  0
  2  4  1  0  0  0  0
  3  5  2  0  0  0  0
  4  6  2  0  0  0  0
  4  7  1  0  0  0  0
  5  6  1  0  0  0  0
  6  8  1  0  0  0  0
  7  9  2  0  0  0  0
  8 10  2  0  0  0  0
  9 10  1  0  0  0  0
M  END
$$$$
CS=O
 OpenBabel07182308452D

  3  2  0  0  1  0  0  0  0  0999 V2000
    7.3097    0.0000    0.0000 S   0  0  0  0  0  0  0  0  0  0  0  0
    7.7222    0.7145    0.0000 O   0  0  0  0  0  0  0  0  0  0  0  0
    7.7222   -0.7145    0.0000 C   0  0  0  0  0  0  0  0  0  0  0  0
  1  2  2  0  0  0  0
  1  3  1  0  0  0  0
M  END
$$$$
FCF
 OpenBabel07182308452D

  3  2  0  0  1  0  0  0  0  0999 V2000
    2.3645   -0.4125    0.0000 F   0  0  0  0  0  0  0  0  0  0  0  0
    1.6500    0.8250    0.0000 F   0  0  0  0  0  0  0  0  0  0  0  0
    2.3645    0.4125    0.0000 C   0  0  0  0  0  0  0  0  0  0  0  0
  1  3  1  0  0  0  0
  2  3  1  0  0  0  0
M  END
$$$$
Oc1ccc2c(c1)[nH]cn2
 OpenBabel07182308452D

 11 12  0  0  1  0  0  0  0  0999 V2000
    3.0791    0.8250    0.0000 O   0  0  0  0  0  0  0  0  0  0  0  0
    6.0031    0.6639    0.0000 N   0  0  0  0  0  0  0  0  0  0  0  0
    6.0031   -0.6639    0.0000 N   0  0  0  0  0  0  0  0  0  0  0  0
    5.2224    0.4125    0.0000 C   0  0  0  0  0  0  0  0  0  0  0  0
    6.4846    0.0000    0.0000 C   0  0  0  0  0  0  0  0  0  0  0  0
    5.2224   -0.4125    0.0000 C   0  0  0  0  0  0  0  0  0  0  0  0
    4.5080    0.8250    0.0000 C   0  0  0  0  0  0  0  0  0  0  0  0
    4.5080   -0.8250    0.0000 C   0  0  0  0  0  0  0  0  0  0  0  0
    3.7935    0.4125    0.0000 C   0  0  0  0  0  0  0  0  0  0  0  0
    3.7935   -0.4125    0.0000 C   0  0  0  0  0  0  0  0  0  0  0  0
    6.3089    1.5997    0.0000 H   0  0  0  0  0  0  0  0  0  0  0  0
  1  9  1  0  0  0  0
  2  4  1  0  0  0  0
  2  5  1  0  0  0  0
  2 11  1  0  0  0  0
  3  5  2  0  0  0  0
  3  6  1  0  0  0  0
  4  6  2  0  0  0  0
  4  7  1  0  0  0  0
  6  8  1  0  0  0  0
  7  9  2  0  0  0  0
  8 10  2  0  0  0  0
  9 10  1  0  0  0  0
M  END
$$$$
NS(=O)=O
 OpenBabel07182308452D

  5  4  0  0  0  0  0  0  0  0999 V2000
    5.9363   -0.4125    0.0000 S   0  0  0  0  0  0  0  0  0  0  0  0
    5.1114   -0.4125    0.0000 O   0  0  0  0  0  0  0  0  0  0  0  0
    6.7612   -0.4125    0.0000 O   0  0  0  0  0  0  0  0  0  0  0  0
    5.9363    0.4125    0.0000 N   0  0  0  0  0  0  0  0  0  0  0  0
    5.0837    0.9048    0.0000 H   0  0  0  0  0  0  0  0  0  0  0  0
  1  2  2  0  0  0  0
  1  3  2  0  0  0  0
  1  4  1  0  0  0  0
  4  5  1  0  0  0  0
M  END
$$$$
CC(N)C
 OpenBabel07182308452D

  5  4  0  0  0  0  0  0  0  0999 V2000
    6.6507    1.6498    0.0000 N   0  0  0  0  0  0  0  0  0  0  0  0
    7.3650    2.0623    0.0000 C   0  0  0  0  0  0  0  0  0  0  0  0
    7.3650    2.8873    0.0000 C   0  0  0  0  0  0  0  0  0  0  0  0
    8.0794    1.6498    0.0000 C   0  0  0  0  0  0  0  0  0  0  0  0
    5.7981    2.1420    0.0000 H   0  0  0  0  0  0  0  0  0  0  0  0
  1  2  1  0  0  0  0
  1  5  1  0  0  0  0
  2  3  1  0  0  0  0
  2  4  1  0  0  0  0
M  END
$$$$
Nc1ccncc1
 OpenBabel07182308452D

  8  8  0  0  0  0  0  0  0  0999 V2000
    4.5075   -1.2374    0.0000 N   0  0  0  0  0  0  0  0  0  0  0  0
    6.6507   -2.4748    0.0000 N   0  0  0  0  0  0  0  0  0  0  0  0
    5.9363   -1.2374    0.0000 C   0  0  0  0  0  0  0  0  0  0  0  0
    5.2218   -1.6498    0.0000 C   0  0  0  0  0  0  0  0  0  0  0  0
    6.6507   -1.6498    0.0000 C   0  0  0  0  0  0  0  0  0  0  0  0
    5.2218   -2.4748    0.0000 C   0  0  0  0  0  0  0  0  0  0  0  0
    5.9363   -2.8873    0.0000 C   0  0  0  0  0  0  0  0  0  0  0  0
    4.5076   -0.2529    0.0000 H   0  0  0  0  0  0  0  0  0  0  0  0
  1  4  1  0  0  0  0
  1  8  1  0  0  0  0
  2  5  2  0  0  0  0
  2  7  1  0  0  0  0
  3  4  2  0  0  0  0
  3  5  1  0  0  0  0
  4  6  1  0  0  0  0
  6  7  2  0  0  0  0
M  END
$$$$
N#Cc1ccc2c(c1)COC2C
 OpenBabel07182308452D

 12 13  0  0  1  0  0  0  0  0999 V2000
    5.7701   -1.0638    0.0000 O   0  0  0  0  0  0  0  0  0  0  0  0
    1.6500   -2.3013    0.0000 N   0  0  0  0  0  0  0  0  0  0  0  0
    5.2886   -0.3998    0.0000 C   0  0  3  0  0  0  0  0  0  0  0  0
    5.0351    0.3853    0.0000 C   0  0  0  0  0  0  0  0  0  0  0  0
    4.5080   -0.6513    0.0000 C   0  0  0  0  0  0  0  0  0  0  0  0
    4.5080   -1.4763    0.0000 C   0  0  0  0  0  0  0  0  0  0  0  0
    5.2886   -1.7277    0.0000 C   0  0  0  0  0  0  0  0  0  0  0  0
    3.7935   -0.2388    0.0000 C   0  0  0  0  0  0  0  0  0  0  0  0
    3.7935   -1.8888    0.0000 C   0  0  0  0  0  0  0  0  0  0  0  0
    3.0790   -0.6513    0.0000 C   0  0  0  0  0  0  0  0  0  0  0  0
    3.0790   -1.4763    0.0000 C   0  0  0  0  0  0  0  0  0  0  0  0
    2.3645   -1.8888    0.0000 C   0  0  0  0  0  0  0  0  0  0  0  0
  1  3  1  0  0  0  0
  1  7  1  0  0  0  0
  2 12  3  0  0  0  0
  3  4  1  0  0  0  0
  3  5  1  0  0  0  0
  5  6  2  0  0  0  0
  5  8  1  0  0  0  0
  6  7  1  0  0  0  0
  6  9  1  0  0  0  0
  8 10  2  0  0  0  0
  9 11  2  0  0  0  0
 10 11  1  0  0  0  0
 11 12  1  0  0  0  0
M  END
$$$$
Fc1ccccc1
 OpenBabel07182308452D

  7  7  0  0  1  0  0  0  0  0999 V2000
    7.9618    1.5353    0.0000 F   0  0  0  0  0  0  0  0  0  0  0  0
    5.9569    0.0840    0.0000 C   0  0  0  0  0  0  0  0  0  0  0  0
    5.8721    0.9046    0.0000 C   0  0  0  0  0  0  0  0  0  0  0  0
    6.7100   -0.2529    0.0000 C   0  0  0  0  0  0  0  0  0  0  0  0
    6.5404    1.3883    0.0000 C   0  0  0  0  0  0  0  0  0  0  0  0
    7.3783    0.2308    0.0000 C   0  0  0  0  0  0  0  0  0  0  0  0
    7.2935    1.0515    0.0000 C   0  0  0  0  0  0  0  0  0  0  0  0
  1  7  1  0  0  0  0
  2  3  2  0  0  0  0
  2  4  1  0  0  0  0
  3  5  1  0  0  0  0
  4  6  2  0  0  0  0
  5  7  2  0  0  0  0
  6  7  1  0  0  0  0
M  END
$$$$
CS(=O)=O
 OpenBabel07182308452D

  4  3  0  0  0  0  0  0  0  0999 V2000
   -2.3053    0.0337    0.0000 S   0  0  0  0  0  0  0  0  0  0  0  0
   -1.5908   -0.3787    0.0000 C   0  0  0  0  0  0  0  0  0  0  0  0
   -1.8861    0.7525    0.0000 O   0  0  0  0  0  0  0  0  0  0  0  0
   -2.7111    0.7525    0.0000 O   0  0  0  0  0  0  0  0  0  0  0  0
  1  2  1  0  0  0  0
  1  3  2  0  0  0  0
  1  4  2  0  0  0  0
M  END
$$$$
Cc1ccc2c(c1)c(C)c[nH]2
 OpenBabel07182308452D

 12 13  0  0  0  0  0  0  0  0999 V2000
   -0.8763    0.0337    0.0000 C   0  0  0  0  0  0  0  0  0  0  0  0
   -0.1617   -0.3787    0.0000 C   0  0  0  0  0  0  0  0  0  0  0  0
    0.5527    0.0337    0.0000 C   0  0  0  0  0  0  0  0  0  0  0  0
   -0.1617   -1.2038    0.0000 C   0  0  0  0  0  0  0  0  0  0  0  0
    0.5527   -1.6163    0.0000 C   0  0  0  0  0  0  0  0  0  0  0  0
    1.2672   -1.2038    0.0000 C   0  0  0  0  0  0  0  0  0  0  0  0
    1.2672   -0.3787    0.0000 C   0  0  0  0  0  0  0  0  0  0  0  0
    2.0519   -0.1237    0.0000 C   0  0  0  0  0  0  0  0  0  0  0  0
    2.0519   -1.4587    0.0000 N   0  0  0  0  0  0  0  0  0  0  0  0
    2.5369   -0.7912    0.0000 C   0  0  0  0  0  0  0  0  0  0  0  0
    2.3068    0.6608    0.0000 C   0  0  0  0  0  0  0  0  0  0  0  0
    2.3561   -2.3950    0.0000 H   0  0  0  0  0  0  0  0  0  0  0  0
  1  2  1  0  0  0  0
  2  4  1  0  0  0  0
  3  2  2  0  0  0  0
  3  7  1  0  0  0  0
  4  5  2  0  0  0  0
  5  6  1  0  0  0  0
  6  9  1  0  0  0  0
  6  7  2  0  0  0  0
  8  7  1  0  0  0  0
  8 10  2  0  0  0  0
  8 11  1  0  0  0  0
  9 10  1  0  0  0  0
  9 12  1  0  0  0  0
M  END
$$$$
CN=C
 OpenBabel07182308452D

  3  2  0  0  0  0  0  0  0  0999 V2000
    2.3645    1.6500    0.0000 N   0  0  0  0  0  0  0  0  0  0  0  0
    3.0790    1.2375    0.0000 C   0  0  0  0  0  0  0  0  0  0  0  0
    2.3645    2.4750    0.0000 C   0  0  0  0  0  0  0  0  0  0  0  0
  1  2  2  0  0  0  0
  1  3  1  0  0  0  0
M  END
$$$$
C1CN[C@H]2[C@@H](C1)CNC2
 OpenBabel07182308452D

 12 13  0  0  1  0  0  0  0  0999 V2000
    4.1869   -0.1789    0.0000 N   0  0  0  0  0  0  0  0  0  0  0  0
    2.8876   -1.8817    0.0000 N   0  0  0  0  0  0  0  0  0  0  0  0
    2.8876   -0.4528    0.0000 C   0  0  2  0  0  0  0  0  0  0  0  0
    3.3001   -1.1672    0.0000 C   0  0  1  0  0  0  0  0  0  0  0  0
    3.4379    0.1554    0.0000 C   0  0  0  0  0  0  0  0  0  0  0  0
    4.1018   -0.9946    0.0000 C   0  0  0  0  0  0  0  0  0  0  0  0
    2.0625   -0.4528    0.0000 C   0  0  0  0  0  0  0  0  0  0  0  0
    1.6500   -1.1672    0.0000 C   0  0  0  0  0  0  0  0  0  0  0  0
    2.0625   -1.8817    0.0000 C   0  0  0  0  0  0  0  0  0  0  0  0
    2.6199    0.1506    0.0000 H   0  0  0  0  0  0  0  0  0  0  0  0
    3.6887   -1.7007    0.0000 H   0  0  0  0  0  0  0  0  0  0  0  0
    3.3976   -2.7650    0.0000 H   0  0  0  0  0  0  0  0  0  0  0  0
  1  5  1  0  0  0  0
  1  6  1  0  0  0  0
  2  4  1  0  0  0  0
  2  9  1  0  0  0  0
  2 12  1  0  0  0  0
  3  4  1  6  0  0  0
  3  5  1  0  0  0  0
  3  7  1  0  0  0  0
  3 10  1  0  0  0  0
  4  6  1  0  0  0  0
  4 11  1  6  0  0  0
  7  8  1  0  0  0  0
  8  9  1  0  0  0  0
M  END
$$$$
C1CC1
 OpenBabel07182308452D

  3  3  0  0  1  0  0  0  0  0999 V2000
    7.0583   -1.0324    0.0000 C   0  0  0  0  0  0  0  0  0  0  0  0
    6.6375   -1.7421    0.0000 C   0  0  0  0  0  0  0  0  0  0  0  0
    7.4625   -1.7517    0.0000 C   0  0  0  0  0  0  0  0  0  0  0  0
  1  2  1  0  0  0  0
  1  3  1  0  0  0  0
  2  3  1  0  0  0  0
M  END
$$$$
Fc1ccc2c(c1)c(=O)cc[nH]2
 OpenBabel07182308452D

 12 13  0  0  1  0  0  0  0  0999 V2000
    4.1869    1.4711    0.0000 F   0  0  0  0  0  0  0  0  0  0  0  0
    7.0583    2.3247    0.0000 O   0  0  0  0  0  0  0  0  0  0  0  0
    7.0678   -0.2075    0.0000 N   0  0  0  0  0  0  0  0  0  0  0  0
    4.9014    0.2336    0.0000 C   0  0  0  0  0  0  0  0  0  0  0  0
    6.3303    0.2336    0.0000 C   0  0  0  0  0  0  0  0  0  0  0  0
    5.6158   -0.1789    0.0000 C   0  0  0  0  0  0  0  0  0  0  0  0
    6.3303    1.0586    0.0000 C   0  0  0  0  0  0  0  0  0  0  0  0
    4.9014    1.0586    0.0000 C   0  0  0  0  0  0  0  0  0  0  0  0
    7.8154    0.2164    0.0000 C   0  0  0  0  0  0  0  0  0  0  0  0
    5.6158    1.4711    0.0000 C   0  0  0  0  0  0  0  0  0  0  0  0
    7.8154    1.0758    0.0000 C   0  0  0  0  0  0  0  0  0  0  0  0
    7.0678    1.4997    0.0000 C   0  0  0  0  0  0  0  0  0  0  0  0
  1  8  1  0  0  0  0
  2 12  2  0  0  0  0
  3  5  1  0  0  0  0
  3  9  1  0  0  0  0
  4  6  1  0  0  0  0
  4  8  2  0  0  0  0
  5  6  2  0  0  0  0
  5  7  1  0  0  0  0
  7 10  2  0  0  0  0
  7 12  1  0  0  0  0
  8 10  1  0  0  0  0
  9 11  2  0  0  0  0
 11 12  1  0  0  0  0
M  END
$$$$
OCC(=O)O
 OpenBabel07182308452D

  6  5  0  0  1  0  0  0  0  0999 V2000
    1.9058    0.0957    0.0000 O   0  0  0  0  0  0  0  0  0  0  0  0
    3.9683   -0.6188    0.0000 O   0  0  0  0  0  0  0  0  0  0  0  0
    3.9683    0.8103    0.0000 O   0  0  0  0  0  0  0  0  0  0  0  0
    2.7308    0.0957    0.0000 C   0  0  0  0  0  0  0  0  0  0  0  0
    3.5558    0.0957    0.0000 C   0  0  0  0  0  0  0  0  0  0  0  0
    1.4208    0.9357    0.0000 H   0  0  0  0  0  0  0  0  0  0  0  0
  1  4  1  0  0  0  0
  1  6  1  0  0  0  0
  2  5  1  0  0  0  0
  3  5  2  0  0  0  0
  4  5  1  0  0  0  0
M  END
$$$$
C[NH2+]C
 OpenBabel07182308452D

  3  2  0  0  1  0  0  0  0  0999 V2000
    6.0309   -1.3332    0.0000 N   0  3  0  0  0  0  0  0  0  0  0  0
    5.2059   -1.3332    0.0000 C   0  0  0  0  0  0  0  0  0  0  0  0
    6.0309   -0.5082    0.0000 C   0  0  0  0  0  0  0  0  0  0  0  0
  1  2  1  0  0  0  0
  1  3  1  0  0  0  0
M  CHG  1   1   1
M  END
$$$$
C1CCCCC1
 OpenBabel07182308452D

  6  6  0  0  1  0  0  0  0  0999 V2000
    2.7308    0.9207    0.0000 C   0  0  0  0  0  0  0  0  0  0  0  0
    2.0163    1.3332    0.0000 C   0  0  0  0  0  0  0  0  0  0  0  0
    3.4453    1.3332    0.0000 C   0  0  0  0  0  0  0  0  0  0  0  0
    2.0163    2.1582    0.0000 C   0  0  0  0  0  0  0  0  0  0  0  0
    3.4453    2.1582    0.0000 C   0  0  0  0  0  0  0  0  0  0  0  0
    2.7308    2.5708    0.0000 C   0  0  0  0  0  0  0  0  0  0  0  0
  1  2  1  0  0  0  0
  1  3  1  0  0  0  0
  2  4  1  0  0  0  0
  3  5  1  0  0  0  0
  4  6  1  0  0  0  0
  5  6  1  0  0  0  0
M  END
$$$$
CN1CC[C@H]2[C@@H](C1)CCCC2
 OpenBabel07182308452D

 13 14  0  0  1  0  0  0  0  0999 V2000
    6.6515   -1.3423    0.0000 N   0  0  0  0  0  0  0  0  0  0  0  0
    8.0804   -2.1673    0.0000 C   0  0  2  0  0  0  0  0  0  0  0  0
    8.0804   -1.3423    0.0000 C   0  0  1  0  0  0  0  0  0  0  0  0
    7.3659   -2.5798    0.0000 C   0  0  0  0  0  0  0  0  0  0  0  0
    7.3659   -0.9298    0.0000 C   0  0  0  0  0  0  0  0  0  0  0  0
    8.8180   -2.6084    0.0000 C   0  0  0  0  0  0  0  0  0  0  0  0
    8.8180   -0.9012    0.0000 C   0  0  0  0  0  0  0  0  0  0  0  0
    6.6515   -2.1673    0.0000 C   0  0  0  0  0  0  0  0  0  0  0  0
    9.5654   -2.1845    0.0000 C   0  0  0  0  0  0  0  0  0  0  0  0
    9.5654   -1.3251    0.0000 C   0  0  0  0  0  0  0  0  0  0  0  0
    5.9370   -0.9298    0.0000 C   0  0  0  0  0  0  0  0  0  0  0  0
    8.0754   -2.8273    0.0000 H   0  0  0  0  0  0  0  0  0  0  0  0
    8.0754   -0.6823    0.0000 H   0  0  0  0  0  0  0  0  0  0  0  0
  1  5  1  0  0  0  0
  1  8  1  0  0  0  0
  1 11  1  0  0  0  0
  2  3  1  6  0  0  0
  2  4  1  0  0  0  0
  2  6  1  0  0  0  0
  2 12  1  0  0  0  0
  3  5  1  0  0  0  0
  3  7  1  0  0  0  0
  3 13  1  6  0  0  0
  4  8  1  0  0  0  0
  6  9  1  0  0  0  0
  7 10  1  0  0  0  0
  9 10  1  0  0  0  0
M  END
$$$$
Cc1ccccc1O
 OpenBabel07182308452D

  9  9  0  0  1  0  0  0  0  0999 V2000
    5.9370    4.0203    0.0000 O   0  0  0  0  0  0  0  0  0  0  0  0
    4.5080    2.3703    0.0000 C   0  0  0  0  0  0  0  0  0  0  0  0
    5.2224    2.7828    0.0000 C   0  0  0  0  0  0  0  0  0  0  0  0
    3.7935    2.7828    0.0000 C   0  0  0  0  0  0  0  0  0  0  0  0
    5.2224    3.6078    0.0000 C   0  0  0  0  0  0  0  0  0  0  0  0
    5.9370    2.3703    0.0000 C   0  0  0  0  0  0  0  0  0  0  0  0
    3.7935    3.6078    0.0000 C   0  0  0  0  0  0  0  0  0  0  0  0
    4.5080    4.0203    0.0000 C   0  0  0  0  0  0  0  0  0  0  0  0
    6.7484    3.5517    0.0000 H   0  0  0  0  0  0  0  0  0  0  0  0
  1  5  1  0  0  0  0
  1  9  1  0  0  0  0
  2  3  2  0  0  0  0
  2  4  1  0  0  0  0
  3  5  1  0  0  0  0
  3  6  1  0  0  0  0
  4  7  2  0  0  0  0
  5  8  2  0  0  0  0
  7  8  1  0  0  0  0
M  END
$$$$
CC1=CC(=O)NC1
 OpenBabel07182308452D

  7  7  0  0  0  0  0  0  0  0999 V2000
    2.8463    0.9233    0.0000 N   0  0  0  0  0  0  0  0  0  0  0  0
    2.1788    1.4083    0.0000 C   0  0  0  0  0  0  0  0  0  0  0  0
    3.5136    1.4083    0.0000 C   0  0  0  0  0  0  0  0  0  0  0  0
    2.4338    2.1929    0.0000 C   0  0  0  0  0  0  0  0  0  0  0  0
    3.2587    2.1929    0.0000 C   0  0  0  0  0  0  0  0  0  0  0  0
    1.9488    2.8604    0.0000 C   0  0  0  0  0  0  0  0  0  0  0  0
    4.2984    1.1534    0.0000 O   0  0  0  0  0  0  0  0  0  0  0  0
  2  1  1  0  0  0  0
  3  1  1  0  0  0  0
  4  2  1  0  0  0  0
  5  3  1  0  0  0  0
  5  4  2  0  0  0  0
  6  4  1  0  0  0  0
  7  3  2  0  0  0  0
M  END
$$$$
CC1CCCCC1
 OpenBabel07182308452D

  7  7  0  0  0  0  0  0  0  0999 V2000
   -3.5839   -1.1391    0.0000 C   0  0  0  0  0  0  0  0  0  0  0  0
   -2.8695   -1.5515    0.0000 C   0  0  0  0  0  0  0  0  0  0  0  0
   -2.8695   -2.3765    0.0000 C   0  0  0  0  0  0  0  0  0  0  0  0
   -4.2984   -2.3765    0.0000 C   0  0  0  0  0  0  0  0  0  0  0  0
   -4.2984   -1.5515    0.0000 C   0  0  0  0  0  0  0  0  0  0  0  0
   -3.5839   -2.7891    0.0000 C   0  0  0  0  0  0  0  0  0  0  0  0
   -3.5839   -3.6140    0.0000 C   0  0  0  0  0  0  0  0  0  0  0  0
  1  2  1  0  0  0  0
  1  5  1  0  0  0  0
  2  3  1  0  0  0  0
  3  6  1  0  0  0  0
  4  5  1  0  0  0  0
  6  4  1  0  0  0  0
  6  7  1  0  0  0  0
M  END
$$$$
O=C1C=C[C@]2(C(=C1)[C@@H](F)C[C@@H]1[C@]2(F)[C@@H](O)C[C@]2([C@H]1C[C@@H]([C@H]2O)C)C)C
 OpenBabel07182308452D

 29 32  0  0  1  0  0  0  0  0999 V2000
   17.4442   -5.8431    0.0000 C   0  0  2  0  0  0  0  0  0  0  0  0
   19.5947   -4.5980    0.0000 C   0  0  1  0  0  0  0  0  0  0  0  0
   18.1516   -5.4186    0.0000 C   0  0  2  0  0  0  0  0  0  0  0  0
   17.4442   -6.6637    0.0000 C   0  0  0  0  0  0  0  0  0  0  0  0
   19.5947   -5.4186    0.0000 C   0  0  2  0  0  0  0  0  0  0  0  0
   18.8873   -5.8431    0.0000 C   0  0  2  0  0  0  0  0  0  0  0  0
   20.3870   -4.3433    0.0000 C   0  0  1  0  0  0  0  0  0  0  0  0
   18.1516   -4.5980    0.0000 C   0  0  2  0  0  0  0  0  0  0  0  0
   16.7085   -5.4186    0.0000 C   0  0  0  0  0  0  0  0  0  0  0  0
   18.8873   -4.1736    0.0000 C   0  0  0  0  0  0  0  0  0  0  0  0
   20.8680   -4.9942    0.0000 C   0  0  2  0  0  0  0  0  0  0  0  0
   20.3870   -5.6733    0.0000 C   0  0  0  0  0  0  0  0  0  0  0  0
   18.8873   -6.6637    0.0000 C   0  0  0  0  0  0  0  0  0  0  0  0
   18.1516   -7.0881    0.0000 C   0  0  2  0  0  0  0  0  0  0  0  0
   16.7085   -7.0881    0.0000 C   0  0  0  0  0  0  0  0  0  0  0  0
   16.0010   -5.8431    0.0000 C   0  0  0  0  0  0  0  0  0  0  0  0
   16.0010   -6.6353    0.0000 C   0  0  0  0  0  0  0  0  0  0  0  0
   18.1516   -6.2109    0.0000 F   0  0  0  0  0  0  0  0  0  0  0  0
   15.2654   -7.0598    0.0000 O   0  0  0  0  0  0  0  0  0  0  0  0
   17.4442   -4.9942    0.0000 C   0  0  0  0  0  0  0  0  0  0  0  0
   19.5947   -3.8057    0.0000 C   0  0  0  0  0  0  0  0  0  0  0  0
   17.4442   -4.1736    0.0000 O   0  0  0  0  0  0  0  0  0  0  0  0
   18.1516   -7.9087    0.0000 F   0  0  0  0  0  0  0  0  0  0  0  0
   18.8873   -4.9942    0.0000 H   0  0  0  0  0  0  0  0  0  0  0  0
   19.5947   -6.2392    0.0000 H   0  0  0  0  0  0  0  0  0  0  0  0
   21.6930   -4.9858    0.0000 C   0  0  0  0  0  0  0  0  0  0  0  0
   21.1810   -4.5522    0.0000 O   0  0  0  0  0  0  0  0  0  0  0  0
   17.4605   -3.2037    0.0000 H   0  0  0  0  0  0  0  0  0  0  0  0
   21.4363   -5.4880    0.0000 H   0  0  0  0  0  0  0  0  0  0  0  0
  1  3  1  6  0  0  0
  1 20  1  0  0  0  0
  2 21  1  0  0  0  0
  2  5  1  1  0  0  0
  3  6  1  1  0  0  0
  3 18  1  0  0  0  0
  4  1  1  0  0  0  0
  5  6  1  1  0  0  0
  5 25  1  0  0  0  0
  6 24  1  1  0  0  0
  7  2  1  6  0  0  0
  7 27  1  0  0  0  0
  8  3  1  1  0  0  0
  8 22  1  0  0  0  0
  9  1  1  0  0  0  0
 10  2  1  0  0  0  0
 10  8  1  0  0  0  0
 11  7  1  0  0  0  0
 11 26  1  1  0  0  0
 12  5  1  0  0  0  0
 12 11  1  0  0  0  0
 13  6  1  0  0  0  0
 14  4  1  0  0  0  0
 14 13  1  0  0  0  0
 14 23  1  6  0  0  0
 15  4  2  0  0  0  0
 16  9  2  0  0  0  0
 17 15  1  0  0  0  0
 17 16  1  0  0  0  0
 19 17  2  0  0  0  0
 22 28  1  0  0  0  0
 27 29  1  0  0  0  0
M  END
$$$$
CN1CCN(CC1)C
 OpenBabel07182308452D

  8  8  0  0  1  0  0  0  0  0999 V2000
    7.8961    0.1701    0.0000 N   0  0  0  0  0  0  0  0  0  0  0  0
    8.9981   -1.0580    0.0000 N   0  0  0  0  0  0  0  0  0  0  0  0
    8.7034    0.3402    0.0000 C   0  0  0  0  0  0  0  0  0  0  0  0
    9.2544   -0.2738    0.0000 C   0  0  0  0  0  0  0  0  0  0  0  0
    7.6398   -0.6141    0.0000 C   0  0  0  0  0  0  0  0  0  0  0  0
    7.3452    0.7842    0.0000 C   0  0  0  0  0  0  0  0  0  0  0  0
    8.1908   -1.2281    0.0000 C   0  0  0  0  0  0  0  0  0  0  0  0
    9.5491   -1.6721    0.0000 C   0  0  0  0  0  0  0  0  0  0  0  0
  1  3  1  0  0  0  0
  1  5  1  0  0  0  0
  1  6  1  0  0  0  0
  2  4  1  0  0  0  0
  2  7  1  0  0  0  0
  2  8  1  0  0  0  0
  3  4  1  0  0  0  0
  5  7  1  0  0  0  0
M  END
$$$$
N[C@@H]1[C@H](O)Cc2c1cccc2
 OpenBabel07182308452D

 13 14  0  0  1  0  0  0  0  0999 V2000
    5.1662   -1.3445    0.0000 O   0  0  0  0  0  0  0  0  0  0  0  0
    4.1160    0.1036    0.0000 N   0  0  0  0  0  0  0  0  0  0  0  0
    3.8597   -0.6806    0.0000 C   0  0  2  0  0  0  0  0  0  0  0  0
    4.3412   -1.3445    0.0000 C   0  0  1  0  0  0  0  0  0  0  0  0
    3.8597   -2.0084    0.0000 C   0  0  0  0  0  0  0  0  0  0  0  0
    3.0791   -0.9319    0.0000 C   0  0  0  0  0  0  0  0  0  0  0  0
    3.0791   -1.7570    0.0000 C   0  0  0  0  0  0  0  0  0  0  0  0
    2.3645   -0.5194    0.0000 C   0  0  0  0  0  0  0  0  0  0  0  0
    2.3645   -2.1695    0.0000 C   0  0  0  0  0  0  0  0  0  0  0  0
    1.6501   -0.9319    0.0000 C   0  0  0  0  0  0  0  0  0  0  0  0
    1.6501   -1.7570    0.0000 C   0  0  0  0  0  0  0  0  0  0  0  0
    5.6512   -2.1845    0.0000 H   0  0  0  0  0  0  0  0  0  0  0  0
    3.4585    0.8363    0.0000 H   0  0  0  0  0  0  0  0  0  0  0  0
  1 12  1  0  0  0  0
  2 13  1  0  0  0  0
  3  2  1  6  0  0  0
  3  4  1  0  0  0  0
  3  6  1  0  0  0  0
  4  1  1  6  0  0  0
  4  5  1  0  0  0  0
  5  7  1  0  0  0  0
  6  7  1  0  0  0  0
  6  8  2  0  0  0  0
  7  9  2  0  0  0  0
  8 10  1  0  0  0  0
  9 11  1  0  0  0  0
 10 11  2  0  0  0  0
M  END
$$$$
[Gd+3]
 OpenBabel07182308452D

  1  0  0  0  0  0  0  0  0  0999 V2000
   -4.3954    0.8622    0.0000 Gd  0  1  0  0  0 15  0  0  0  0  0  0
M  CHG  1   1   3
M  END
$$$$
C1CCC2(CC1)OCCO2
 OpenBabel07182308452D

 10 11  0  0  1  0  0  0  0  0999 V2000
    3.7850   -0.0593    0.0000 O   0  0  0  0  0  0  0  0  0  0  0  0
    3.7850   -1.3942    0.0000 O   0  0  0  0  0  0  0  0  0  0  0  0
    3.3001   -0.7268    0.0000 C   0  0  0  0  0  0  0  0  0  0  0  0
    2.8876   -1.4412    0.0000 C   0  0  0  0  0  0  0  0  0  0  0  0
    2.8876   -0.0123    0.0000 C   0  0  0  0  0  0  0  0  0  0  0  0
    2.0625   -0.0123    0.0000 C   0  0  0  0  0  0  0  0  0  0  0  0
    2.0625   -1.4412    0.0000 C   0  0  0  0  0  0  0  0  0  0  0  0
    1.6500   -0.7268    0.0000 C   0  0  0  0  0  0  0  0  0  0  0  0
    4.5696   -0.3142    0.0000 C   0  0  0  0  0  0  0  0  0  0  0  0
    4.5696   -1.1393    0.0000 C   0  0  0  0  0  0  0  0  0  0  0  0
  1  3  1  0  0  0  0
  1  9  1  0  0  0  0
  2  3  1  0  0  0  0
  2 10  1  0  0  0  0
  3  4  1  0  0  0  0
  3  5  1  0  0  0  0
  4  7  1  0  0  0  0
  5  6  1  0  0  0  0
  6  8  1  0  0  0  0
  7  8  1  0  0  0  0
  9 10  1  0  0  0  0
M  END
$$$$
O[C@@H]1C[C@@H](C)OC(=O)C1
 OpenBabel07182308452D

 10 10  0  0  1  0  0  0  0  0999 V2000
    5.9312   -1.2373    0.0000 O   0  0  0  0  0  0  0  0  0  0  0  0
    3.7736   -2.4499    0.0000 O   0  0  0  0  0  0  0  0  0  0  0  0
    6.6313   -2.4829    0.0000 O   0  0  0  0  0  0  0  0  0  0  0  0
    5.2310    0.0084    0.0000 C   0  0  0  0  0  0  0  0  0  0  0  0
    5.2216   -0.8165    0.0000 C   0  0  2  0  0  0  0  0  0  0  0  0
    4.5023   -1.2207    0.0000 C   0  0  0  0  0  0  0  0  0  0  0  0
    4.4928   -2.0457    0.0000 C   0  0  2  0  0  0  0  0  0  0  0  0
    5.2025   -2.4664    0.0000 C   0  0  0  0  0  0  0  0  0  0  0  0
    5.9217   -2.0622    0.0000 C   0  0  0  0  0  0  0  0  0  0  0  0
    2.9392   -1.9552    0.0000 H   0  0  0  0  0  0  0  0  0  0  0  0
  1  5  1  0  0  0  0
  1  9  1  0  0  0  0
  2 10  1  0  0  0  0
  3  9  2  0  0  0  0
  5  4  1  1  0  0  0
  5  6  1  0  0  0  0
  6  7  1  0  0  0  0
  7  2  1  6  0  0  0
  7  8  1  0  0  0  0
  8  9  1  0  0  0  0
M  END
$$$$
C[C@@H]1C[C@H](O)[C@H]2C(=C1)C=C[C@@H]([C@@H]2C)C
 OpenBabel07182308452D

 15 16  0  0  1  0  0  0  0  0999 V2000
    3.0790    0.4577    0.0000 O   0  0  0  0  0  0  0  0  0  0  0  0
    3.7935    1.6952    0.0000 C   0  0  1  0  0  0  0  0  0  0  0  0
    4.5309    1.2542    0.0000 C   0  0  2  0  0  0  0  0  0  0  0  0
    3.0790    1.2827    0.0000 C   0  0  2  0  0  0  0  0  0  0  0  0
    5.2785    1.6781    0.0000 C   0  0  2  0  0  0  0  0  0  0  0  0
    3.7935    2.5202    0.0000 C   0  0  0  0  0  0  0  0  0  0  0  0
    4.5215    0.4292    0.0000 C   0  0  0  0  0  0  0  0  0  0  0  0
    2.3645    1.6952    0.0000 C   0  0  0  0  0  0  0  0  0  0  0  0
    2.3645    2.5202    0.0000 C   0  0  2  0  0  0  0  0  0  0  0  0
    3.0790    2.9327    0.0000 C   0  0  0  0  0  0  0  0  0  0  0  0
    5.2785    2.5374    0.0000 C   0  0  0  0  0  0  0  0  0  0  0  0
    4.5309    2.9614    0.0000 C   0  0  0  0  0  0  0  0  0  0  0  0
    5.9914    1.2628    0.0000 C   0  0  0  0  0  0  0  0  0  0  0  0
    1.6500    2.9327    0.0000 C   0  0  0  0  0  0  0  0  0  0  0  0
    3.7884    1.0352    0.0000 H   0  0  0  0  0  0  0  0  0  0  0  0
  2  6  1  0  0  0  0
  2 15  1  6  0  0  0
  3  2  1  6  0  0  0
  3  5  1  0  0  0  0
  3  7  1  0  0  0  0
  4  1  1  0  0  0  0
  4  2  1  1  0  0  0
  4  8  1  0  0  0  0
  5 11  1  0  0  0  0
  5 13  1  6  0  0  0
  6 10  2  0  0  0  0
  6 12  1  0  0  0  0
  8  9  1  0  0  0  0
  9 10  1  0  0  0  0
  9 14  1  1  0  0  0
 11 12  2  0  0  0  0
M  END
$$$$
FCCl
 OpenBabel07182308452D

  3  2  0  0  1  0  0  0  0  0999 V2000
    5.2224   -0.2615    0.0000 Cl  0  0  0  0  0  0  0  0  0  0  0  0
    4.5080    0.9760    0.0000 F   0  0  0  0  0  0  0  0  0  0  0  0
    4.5080    0.1510    0.0000 C   0  0  0  0  0  0  0  0  0  0  0  0
  1  3  1  0  0  0  0
  2  3  1  0  0  0  0
M  END
$$$$
OC(F)F
 OpenBabel07182308452D

  4  3  0  0  1  0  0  0  0  0999 V2000
    3.3810    0.4529    0.0000 F   0  0  0  0  0  0  0  0  0  0  0  0
    4.2060   -0.9760    0.0000 F   0  0  0  0  0  0  0  0  0  0  0  0
    3.0791   -0.6740    0.0000 O   0  0  0  0  0  0  0  0  0  0  0  0
    3.7935   -0.2615    0.0000 C   0  0  0  0  0  0  0  0  0  0  0  0
  1  4  1  0  0  0  0
  2  4  1  0  0  0  0
  3  4  1  0  0  0  0
M  END
$$$$
N[C@H]1[C@H]2SCC=CN2C1=O
 OpenBabel07182308452D

 12 13  0  0  1  0  0  0  0  0999 V2000
    7.1740   -1.1463    0.0000 S   0  0  0  0  0  0  0  0  0  0  0  0
    9.3025    0.6792    0.0000 O   0  0  0  0  0  0  0  0  0  0  0  0
    7.8885    0.0912    0.0000 N   0  0  0  0  0  0  0  0  0  0  0  0
    9.3025   -1.3218    0.0000 N   0  0  0  0  0  0  0  0  0  0  0  0
    7.8885   -0.7338    0.0000 C   0  0  1  0  0  0  0  0  0  0  0  0
    8.7204   -0.7372    0.0000 C   0  0  1  0  0  0  0  0  0  0  0  0
    8.7204    0.0946    0.0000 C   0  0  0  0  0  0  0  0  0  0  0  0
    7.1740    0.5038    0.0000 C   0  0  0  0  0  0  0  0  0  0  0  0
    6.4596    0.0912    0.0000 C   0  0  0  0  0  0  0  0  0  0  0  0
    6.4596   -0.7338    0.0000 C   0  0  0  0  0  0  0  0  0  0  0  0
    8.0580   -1.3717    0.0000 H   0  0  0  0  0  0  0  0  0  0  0  0
    9.0457   -2.2722    0.0000 H   0  0  0  0  0  0  0  0  0  0  0  0
  1  5  1  0  0  0  0
  1 10  1  0  0  0  0
  2  7  2  0  0  0  0
  3  5  1  0  0  0  0
  3  7  1  0  0  0  0
  3  8  1  0  0  0  0
  4 12  1  0  0  0  0
  5 11  1  6  0  0  0
  6  4  1  0  0  0  0
  6  5  1  1  0  0  0
  6  7  1  0  0  0  0
  8  9  2  0  0  0  0
  9 10  1  0  0  0  0
M  END
$$$$
Nc1nccs1
 OpenBabel07182308452D

  8  8  0  0  1  0  0  0  0  0999 V2000
   12.8123   -1.5552    0.0000 S   0  0  0  0  0  0  0  0  0  0  0  0
   11.7766   -0.7130    0.0000 N   0  0  0  0  0  0  0  0  0  0  0  0
   13.1209   -0.1177    0.0000 N   0  0  0  0  0  0  0  0  0  0  0  0
   11.4794   -1.4826    0.0000 C   0  0  0  0  0  0  0  0  0  0  0  0
   12.1195   -2.0031    0.0000 C   0  0  0  0  0  0  0  0  0  0  0  0
   12.6004   -0.7579    0.0000 C   0  0  0  0  0  0  0  0  0  0  0  0
   14.0930   -0.2736    0.0000 H   0  0  0  0  0  0  0  0  0  0  0  0
   12.7699    0.8021    0.0000 H   0  0  0  0  0  0  0  0  0  0  0  0
  1  5  1  0  0  0  0
  1  6  1  0  0  0  0
  2  4  1  0  0  0  0
  2  6  2  0  0  0  0
  3  6  1  0  0  0  0
  3  7  1  0  0  0  0
  3  8  1  0  0  0  0
  4  5  2  0  0  0  0
M  END
$$$$
Cn1cnnn1
 OpenBabel07182308452D

  6  6  0  0  1  0  0  0  0  0999 V2000
    3.5623    0.1682    0.0000 N   0  0  0  0  0  0  0  0  0  0  0  0
    4.2299    1.3242    0.0000 N   0  0  0  0  0  0  0  0  0  0  0  0
    3.0103    0.7813    0.0000 N   0  0  0  0  0  0  0  0  0  0  0  0
    3.4228    1.4958    0.0000 N   0  0  0  0  0  0  0  0  0  0  0  0
    4.3161    0.5038    0.0000 C   0  0  0  0  0  0  0  0  0  0  0  0
    3.3908   -0.6388    0.0000 C   0  0  0  0  0  0  0  0  0  0  0  0
  1  3  1  0  0  0  0
  1  5  1  0  0  0  0
  1  6  1  0  0  0  0
  2  4  1  0  0  0  0
  2  5  2  0  0  0  0
  3  4  2  0  0  0  0
M  END
$$$$
Clc1ccc2c(c1)C=NC(C(=O)N2C)O
 OpenBabel07182308452D

 16 17  0  0  1  0  0  0  0  0999 V2000
    2.8172   -2.3783    0.0000 Cl  0  0  0  0  0  0  0  0  0  0  0  0
    4.1516    2.3401    0.0000 O   0  0  0  0  0  0  0  0  0  0  0  0
    2.6107    2.3401    0.0000 O   0  0  0  0  0  0  0  0  0  0  0  0
    2.4543    0.9518    0.0000 N   0  0  0  0  0  0  0  0  0  0  0  0
    4.3080    0.9518    0.0000 N   0  0  0  0  0  0  0  0  0  0  0  0
    2.6378    0.1475    0.0000 C   0  0  0  0  0  0  0  0  0  0  0  0
    3.3811   -0.2105    0.0000 C   0  0  0  0  0  0  0  0  0  0  0  0
    4.1245    0.1475    0.0000 C   0  0  0  0  0  0  0  0  0  0  0  0
    3.7936    1.5968    0.0000 C   0  0  3  0  0  0  0  0  0  0  0  0
    2.9687    1.5968    0.0000 C   0  0  0  0  0  0  0  0  0  0  0  0
    3.4586   -1.0663    0.0000 C   0  0  0  0  0  0  0  0  0  0  0  0
    1.9205   -0.3256    0.0000 C   0  0  0  0  0  0  0  0  0  0  0  0
    1.6500    1.1354    0.0000 C   0  0  0  0  0  0  0  0  0  0  0  0
    2.7523   -1.5559    0.0000 C   0  0  0  0  0  0  0  0  0  0  0  0
    1.9781   -1.1830    0.0000 C   0  0  0  0  0  0  0  0  0  0  0  0
    5.1189    2.4125    0.0000 H   0  0  0  0  0  0  0  0  0  0  0  0
  1 14  1  0  0  0  0
  2  9  1  0  0  0  0
  2 16  1  0  0  0  0
  3 10  2  0  0  0  0
  4  6  1  0  0  0  0
  4 10  1  0  0  0  0
  4 13  1  0  0  0  0
  5  8  2  0  0  0  0
  5  9  1  0  0  0  0
  6  7  2  0  0  0  0
  6 12  1  0  0  0  0
  7  8  1  0  0  0  0
  7 11  1  0  0  0  0
  9 10  1  0  0  0  0
 11 14  2  0  0  0  0
 12 15  2  0  0  0  0
 14 15  1  0  0  0  0
M  END
$$$$
Nc1cccc(c1)O
 OpenBabel07182308452D

 11 11  0  0  0  0  0  0  0  0999 V2000
    2.0930    0.4909    0.0000 O   0  0  0  0  0  0  0  0  0  0  0  0
    3.5220   -1.9842    0.0000 N   0  0  0  0  0  0  0  0  0  0  0  0
    3.5220    0.4909    0.0000 C   0  0  0  0  0  0  0  0  0  0  0  0
    2.8075    0.0784    0.0000 C   0  0  0  0  0  0  0  0  0  0  0  0
    3.5220   -1.1592    0.0000 C   0  0  0  0  0  0  0  0  0  0  0  0
    2.8075   -0.7466    0.0000 C   0  0  0  0  0  0  0  0  0  0  0  0
    4.2365    0.0784    0.0000 C   0  0  0  0  0  0  0  0  0  0  0  0
    4.2365   -0.7466    0.0000 C   0  0  0  0  0  0  0  0  0  0  0  0
    2.0930    1.4279    0.0000 H   0  0  0  0  0  0  0  0  0  0  0  0
    2.6694   -2.4764    0.0000 H   0  0  0  0  0  0  0  0  0  0  0  0
    4.3746   -2.4764    0.0000 H   0  0  0  0  0  0  0  0  0  0  0  0
  1  4  1  0  0  0  0
  1  9  1  0  0  0  0
  2  5  1  0  0  0  0
  2 10  1  0  0  0  0
  2 11  1  0  0  0  0
  3  4  2  0  0  0  0
  3  7  1  0  0  0  0
  4  6  1  0  0  0  0
  5  6  2  0  0  0  0
  5  8  1  0  0  0  0
  7  8  2  0  0  0  0
M  END
$$$$
C1CNCCO1
 OpenBabel07182308452D

  8  8  0  0  0  0  0  0  0  0999 V2000
    0.3332   -0.8636    0.0000 C   0  0  0  0  0  0  0  0  0  0  0  0
   -0.3742   -1.2898    0.0000 O   0  0  0  0  0  0  0  0  0  0  0  0
   -0.3742   -2.0696    0.0000 C   0  0  0  0  0  0  0  0  0  0  0  0
    0.3332   -2.4279    0.0000 C   0  0  0  0  0  0  0  0  0  0  0  0
    1.0405   -1.9927    0.0000 N   0  0  0  0  0  0  0  0  0  0  0  0
    1.0405   -1.2082    0.0000 C   0  0  0  0  0  0  0  0  0  0  0  0
    1.2726   -0.6934    0.0000 H   0  0  0  0  0  0  0  0  0  0  0  0
    1.9309   -2.4903    0.0000 H   0  0  0  0  0  0  0  0  0  0  0  0
  1  2  1  0  0  0  0
  1  7  1  0  0  0  0
  3  2  1  0  0  0  0
  4  3  1  0  0  0  0
  4  5  1  0  0  0  0
  5  6  1  0  0  0  0
  5  8  1  0  0  0  0
  6  1  1  0  0  0  0
M  END
$$$$
Cc1ccc(c(=O)[nH]1)C#N
 OpenBabel07182308452D

 11 11  0  0  0  0  0  0  0  0999 V2000
    5.9370   -1.1880    0.0000 O   0  0  0  0  0  0  0  0  0  0  0  0
    4.5080   -1.1880    0.0000 N   0  0  0  0  0  0  0  0  0  0  0  0
    6.6515    0.8745    0.0000 N   0  0  0  0  0  0  0  0  0  0  0  0
    3.7935    0.0495    0.0000 C   0  0  0  0  0  0  0  0  0  0  0  0
    3.7935   -0.7755    0.0000 C   0  0  0  0  0  0  0  0  0  0  0  0
    4.5080    0.4620    0.0000 C   0  0  0  0  0  0  0  0  0  0  0  0
    5.2224    0.0495    0.0000 C   0  0  0  0  0  0  0  0  0  0  0  0
    3.0791   -1.1880    0.0000 C   0  0  0  0  0  0  0  0  0  0  0  0
    5.2224   -0.7755    0.0000 C   0  0  0  0  0  0  0  0  0  0  0  0
    5.9370    0.4620    0.0000 C   0  0  0  0  0  0  0  0  0  0  0  0
    4.5080   -2.1725    0.0000 H   0  0  0  0  0  0  0  0  0  0  0  0
  1  9  2  0  0  0  0
  2  5  1  0  0  0  0
  2  9  1  0  0  0  0
  2 11  1  0  0  0  0
  3 10  3  0  0  0  0
  4  5  2  0  0  0  0
  4  6  1  0  0  0  0
  5  8  1  0  0  0  0
  6  7  2  0  0  0  0
  7  9  1  0  0  0  0
  7 10  1  0  0  0  0
M  END
$$$$
CBr
 OpenBabel07182308452D

  2  1  0  0  0  0  0  0  0  0999 V2000
    1.6500   -3.3000    0.0000 Br  0  0  0  0  0  0  0  0  0  0  0  0
    2.3645   -2.8875    0.0000 C   0  0  0  0  0  0  0  0  0  0  0  0
  1  2  1  0  0  0  0
M  END
$$$$
N1CCNCC1
 OpenBabel07182308452D

  6  6  0  0  0  0  0  0  0  0999 V2000
    3.0790   -0.8250    0.0000 N   0  0  0  0  0  0  0  0  0  0  0  0
    3.0790    0.8250    0.0000 N   0  0  0  0  0  0  0  0  0  0  0  0
    3.7935   -0.4125    0.0000 C   0  0  0  0  0  0  0  0  0  0  0  0
    2.3645   -0.4125    0.0000 C   0  0  0  0  0  0  0  0  0  0  0  0
    3.7935    0.4125    0.0000 C   0  0  0  0  0  0  0  0  0  0  0  0
    2.3645    0.4125    0.0000 C   0  0  0  0  0  0  0  0  0  0  0  0
  1  3  1  0  0  0  0
  1  4  1  0  0  0  0
  2  5  1  0  0  0  0
  2  6  1  0  0  0  0
  3  5  1  0  0  0  0
  4  6  1  0  0  0  0
M  END
$$$$
O=C1CC(=O)NC(=O)N1
 OpenBabel07182308452D

 11 11  0  0  1  0  0  0  0  0999 V2000
    4.5080    0.1658    0.0000 O   0  0  0  0  0  0  0  0  0  0  0  0
    1.6500    0.1658    0.0000 O   0  0  0  0  0  0  0  0  0  0  0  0
    3.0791   -2.3092    0.0000 O   0  0  0  0  0  0  0  0  0  0  0  0
    3.7935   -1.0717    0.0000 N   0  0  0  0  0  0  0  0  0  0  0  0
    2.3645   -1.0717    0.0000 N   0  0  0  0  0  0  0  0  0  0  0  0
    3.0791    0.1658    0.0000 C   0  0  0  0  0  0  0  0  0  0  0  0
    3.7935   -0.2467    0.0000 C   0  0  0  0  0  0  0  0  0  0  0  0
    2.3645   -0.2467    0.0000 C   0  0  0  0  0  0  0  0  0  0  0  0
    3.0791   -1.4842    0.0000 C   0  0  0  0  0  0  0  0  0  0  0  0
    4.6461   -1.5639    0.0000 H   0  0  0  0  0  0  0  0  0  0  0  0
    1.5119   -1.5640    0.0000 H   0  0  0  0  0  0  0  0  0  0  0  0
  1  7  2  0  0  0  0
  2  8  2  0  0  0  0
  3  9  2  0  0  0  0
  4  7  1  0  0  0  0
  4  9  1  0  0  0  0
  4 10  1  0  0  0  0
  5  8  1  0  0  0  0
  5  9  1  0  0  0  0
  5 11  1  0  0  0  0
  6  7  1  0  0  0  0
  6  8  1  0  0  0  0
M  END
$$$$
Cc1ccnc2c1[nH]c(=O)c1c([nH]2)nccc1
 OpenBabel07182308452D

 18 20  0  0  0  0  0  0  0  0999 V2000
    4.7984    2.0448    0.0000 O   0  0  0  0  0  0  0  0  0  0  0  0
    4.0281   -0.5055    0.0000 N   0  0  0  0  0  0  0  0  0  0  0  0
    3.6156    1.3017    0.0000 N   0  0  0  0  0  0  0  0  0  0  0  0
    2.6640   -0.7417    0.0000 N   0  0  0  0  0  0  0  0  0  0  0  0
    5.3921   -0.7417    0.0000 N   0  0  0  0  0  0  0  0  0  0  0  0
    3.2849   -0.1476    0.0000 C   0  0  0  0  0  0  0  0  0  0  0  0
    4.7713   -0.1476    0.0000 C   0  0  0  0  0  0  0  0  0  0  0  0
    3.1013    0.6566    0.0000 C   0  0  0  0  0  0  0  0  0  0  0  0
    4.9549    0.6566    0.0000 C   0  0  0  0  0  0  0  0  0  0  0  0
    2.2842    0.9226    0.0000 C   0  0  0  0  0  0  0  0  0  0  0  0
    4.4406    1.3017    0.0000 C   0  0  0  0  0  0  0  0  0  0  0  0
    5.7719    0.9225    0.0000 C   0  0  0  0  0  0  0  0  0  0  0  0
    1.6498    0.3430    0.0000 C   0  0  0  0  0  0  0  0  0  0  0  0
    1.8410   -0.4948    0.0000 C   0  0  0  0  0  0  0  0  0  0  0  0
    6.2151   -0.4948    0.0000 C   0  0  0  0  0  0  0  0  0  0  0  0
    2.1100    1.7288    0.0000 C   0  0  0  0  0  0  0  0  0  0  0  0
    6.4064    0.3430    0.0000 C   0  0  0  0  0  0  0  0  0  0  0  0
    3.1884    2.1887    0.0000 H   0  0  0  0  0  0  0  0  0  0  0  0
  1 11  2  0  0  0  0
  2  6  1  0  0  0  0
  2  7  1  0  0  0  0
  3  8  1  0  0  0  0
  3 11  1  0  0  0  0
  3 18  1  0  0  0  0
  4  6  2  0  0  0  0
  4 14  1  0  0  0  0
  5  7  1  0  0  0  0
  5 15  2  0  0  0  0
  6  8  1  0  0  0  0
  7  9  2  0  0  0  0
  8 10  2  0  0  0  0
  9 11  1  0  0  0  0
  9 12  1  0  0  0  0
 10 13  1  0  0  0  0
 10 16  1  0  0  0  0
 12 17  2  0  0  0  0
 13 14  2  0  0  0  0
 15 17  1  0  0  0  0
M  END
$$$$
Clc1ccc(c(c1)Cl)C
 OpenBabel07182308452D

  9  9  0  0  0  0  0  0  0  0999 V2000
   -1.4324   -1.2704    0.0000 C   0  0  0  0  0  0  0  0  0  0  0  0
   -1.4324   -2.0925    0.0000 C   0  0  0  0  0  0  0  0  0  0  0  0
   -2.1548   -0.8469    0.0000 C   0  0  0  0  0  0  0  0  0  0  0  0
   -2.1548   -2.4911    0.0000 C   0  0  0  0  0  0  0  0  0  0  0  0
   -2.8522   -1.2704    0.0000 C   0  0  0  0  0  0  0  0  0  0  0  0
   -2.8522   -2.0925    0.0000 C   0  0  0  0  0  0  0  0  0  0  0  0
   -3.5747   -2.4911    0.0000 Cl  0  0  0  0  0  0  0  0  0  0  0  0
   -2.1548   -0.0249    0.0000 Cl  0  0  0  0  0  0  0  0  0  0  0  0
   -0.7099   -0.8469    0.0000 C   0  0  0  0  0  0  0  0  0  0  0  0
  2  1  1  0  0  0  0
  3  1  2  0  0  0  0
  4  2  2  0  0  0  0
  5  3  1  0  0  0  0
  6  4  1  0  0  0  0
  6  5  2  0  0  0  0
  7  6  1  0  0  0  0
  8  3  1  0  0  0  0
  9  1  1  0  0  0  0
M  END
$$$$
Clc1cccc(c1)Cl
 OpenBabel07182308452D

  8  8  0  0  0  0  0  0  0  0999 V2000
    1.4324    0.3737    0.0000 C   0  0  0  0  0  0  0  0  0  0  0  0
    2.8522    1.2206    0.0000 C   0  0  0  0  0  0  0  0  0  0  0  0
    2.8522    0.3737    0.0000 C   0  0  0  0  0  0  0  0  0  0  0  0
    2.1548    1.6191    0.0000 C   0  0  0  0  0  0  0  0  0  0  0  0
    2.1548   -0.0249    0.0000 C   0  0  0  0  0  0  0  0  0  0  0  0
    1.4324    1.2206    0.0000 C   0  0  0  0  0  0  0  0  0  0  0  0
    3.5747    1.6191    0.0000 Cl  0  0  0  0  0  0  0  0  0  0  0  0
    2.1548   -0.8469    0.0000 Cl  0  0  0  0  0  0  0  0  0  0  0  0
  3  2  1  0  0  0  0
  4  2  2  0  0  0  0
  5  1  1  0  0  0  0
  5  3  2  0  0  0  0
  6  1  2  0  0  0  0
  6  4  1  0  0  0  0
  7  2  1  0  0  0  0
  8  5  1  0  0  0  0
M  END
$$$$
O=C1C=C[C@]2(C(=C1)C[C@H]([C@@H]1[C@@H]2[C@@H](O)C[C@]2([C@H]1C[C@H]([C@H]2O)C)C)Cl)C
 OpenBabel07182308452D

 29 32  0  0  0  0  0  0  0  0999 V2000
   -2.4545   -1.1551    0.0000 C   0  0  0  0  0  0  0  0  0  0  0  0
   -2.4545   -1.9802    0.0000 C   0  0  0  0  0  0  0  0  0  0  0  0
   -1.7533   -2.3515    0.0000 C   0  0  0  0  0  0  0  0  0  0  0  0
   -1.0519   -1.9802    0.0000 C   0  0  0  0  0  0  0  0  0  0  0  0
   -1.0519   -1.1551    0.0000 C   0  0  2  0  0  0  0  0  0  0  0  0
   -1.7533   -0.7426    0.0000 C   0  0  0  0  0  0  0  0  0  0  0  0
   -0.3506   -2.3515    0.0000 C   0  0  0  0  0  0  0  0  0  0  0  0
    0.3918   -1.9802    0.0000 C   0  0  2  0  0  0  0  0  0  0  0  0
    0.3918   -1.1551    0.0000 C   0  0  2  0  0  0  0  0  0  0  0  0
   -0.3506   -0.7426    0.0000 C   0  0  2  0  0  0  0  0  0  0  0  0
    1.0932   -0.7426    0.0000 C   0  0  1  0  0  0  0  0  0  0  0  0
    1.0932    0.0824    0.0000 C   0  0  2  0  0  0  0  0  0  0  0  0
    0.3918    0.4949    0.0000 C   0  0  0  0  0  0  0  0  0  0  0  0
   -0.3506    0.0824    0.0000 C   0  0  2  0  0  0  0  0  0  0  0  0
    1.8358   -0.9900    0.0000 C   0  0  0  0  0  0  0  0  0  0  0  0
    2.3308   -0.3300    0.0000 C   0  0  2  0  0  0  0  0  0  0  0  0
    1.8358    0.3299    0.0000 C   0  0  1  0  0  0  0  0  0  0  0  0
   -3.1559   -2.3515    0.0000 O   0  0  0  0  0  0  0  0  0  0  0  0
   -1.0519   -0.3300    0.0000 C   0  0  0  0  0  0  0  0  0  0  0  0
    0.3918   -0.3300    0.0000 H   0  0  0  0  0  0  0  0  0  0  0  0
   -1.0519    0.4949    0.0000 O   0  0  0  0  0  0  0  0  0  0  0  0
    1.0932    0.9076    0.0000 C   0  0  0  0  0  0  0  0  0  0  0  0
   -0.3506   -1.5676    0.0000 H   0  0  0  0  0  0  0  0  0  0  0  0
    1.0932   -1.5676    0.0000 H   0  0  0  0  0  0  0  0  0  0  0  0
    3.1559   -0.3300    0.0000 C   0  0  0  0  0  0  0  0  0  0  0  0
    2.5503    0.7425    0.0000 O   0  0  0  0  0  0  0  0  0  0  0  0
    1.1064   -2.3927    0.0000 Cl  0  0  0  0  0  0  0  0  0  0  0  0
   -1.0440    1.4649    0.0000 H   0  0  0  0  0  0  0  0  0  0  0  0
    3.3904    0.2576    0.0000 H   0  0  0  0  0  0  0  0  0  0  0  0
  1  2  1  0  0  0  0
  1  6  2  0  0  0  0
  2  3  1  0  0  0  0
  2 18  2  0  0  0  0
  3  4  2  0  0  0  0
  4  5  1  0  0  0  0
  4  7  1  0  0  0  0
  5  6  1  0  0  0  0
  5 10  1  6  0  0  0
  5 19  1  0  0  0  0
  7  8  1  0  0  0  0
  8  9  1  6  0  0  0
  8 27  1  0  0  0  0
  9 10  1  6  0  0  0
  9 20  1  0  0  0  0
 10 23  1  6  0  0  0
 11  9  1  1  0  0  0
 11 15  1  0  0  0  0
 11 24  1  0  0  0  0
 12 11  1  1  0  0  0
 12 13  1  0  0  0  0
 12 22  1  0  0  0  0
 13 14  1  0  0  0  0
 14 10  1  1  0  0  0
 14 21  1  0  0  0  0
 15 16  1  0  0  0  0
 16 17  1  0  0  0  0
 16 25  1  6  0  0  0
 17 12  1  6  0  0  0
 17 26  1  0  0  0  0
 21 28  1  0  0  0  0
 26 29  1  0  0  0  0
M  END
$$$$
O=C1NC(=O)NC(=O)C1(C)C
 OpenBabel07182308452D

 13 13  0  0  0  0  0  0  0  0999 V2000
    4.7291    0.1658    0.0000 O   0  0  0  0  0  0  0  0  0  0  0  0
    1.8711    0.1658    0.0000 O   0  0  0  0  0  0  0  0  0  0  0  0
    3.3001   -2.3092    0.0000 O   0  0  0  0  0  0  0  0  0  0  0  0
    4.0145   -1.0717    0.0000 N   0  0  0  0  0  0  0  0  0  0  0  0
    2.5856   -1.0717    0.0000 N   0  0  0  0  0  0  0  0  0  0  0  0
    3.3001    0.1658    0.0000 C   0  0  0  0  0  0  0  0  0  0  0  0
    3.7126    0.8803    0.0000 C   0  0  0  0  0  0  0  0  0  0  0  0
    2.8876    0.8803    0.0000 C   0  0  0  0  0  0  0  0  0  0  0  0
    4.0145   -0.2467    0.0000 C   0  0  0  0  0  0  0  0  0  0  0  0
    2.5856   -0.2467    0.0000 C   0  0  0  0  0  0  0  0  0  0  0  0
    3.3001   -1.4842    0.0000 C   0  0  0  0  0  0  0  0  0  0  0  0
    4.8671   -1.5639    0.0000 H   0  0  0  0  0  0  0  0  0  0  0  0
    1.7330   -1.5640    0.0000 H   0  0  0  0  0  0  0  0  0  0  0  0
  1  9  2  0  0  0  0
  2 10  2  0  0  0  0
  3 11  2  0  0  0  0
  4  9  1  0  0  0  0
  4 11  1  0  0  0  0
  4 12  1  0  0  0  0
  5 10  1  0  0  0  0
  5 11  1  0  0  0  0
  5 13  1  0  0  0  0
  6  7  1  0  0  0  0
  6  8  1  0  0  0  0
  6  9  1  0  0  0  0
  6 10  1  0  0  0  0
M  END
$$$$
O[C@@H]1COCC1
 OpenBabel07182308452D

  7  7  0  0  1  0  0  0  0  0999 V2000
    4.3467    0.7358    0.0000 O   0  0  0  0  0  0  0  0  0  0  0  0
    6.2852    1.6299    0.0000 O   0  0  0  0  0  0  0  0  0  0  0  0
    4.8305    0.0675    0.0000 C   0  0  0  0  0  0  0  0  0  0  0  0
    5.6170    1.1461    0.0000 C   0  0  1  0  0  0  0  0  0  0  0  0
    5.6155    0.3211    0.0000 C   0  0  0  0  0  0  0  0  0  0  0  0
    4.8328    1.4024    0.0000 C   0  0  0  0  0  0  0  0  0  0  0  0
    7.1707    1.2339    0.0000 H   0  0  0  0  0  0  0  0  0  0  0  0
  1  3  1  0  0  0  0
  1  6  1  0  0  0  0
  2  7  1  0  0  0  0
  3  5  1  0  0  0  0
  4  2  1  1  0  0  0
  4  5  1  0  0  0  0
  4  6  1  0  0  0  0
M  END
$$$$
Clc1nc(N)c2c(n1)[nH]cn2
 OpenBabel07182308452D

 13 14  0  0  1  0  0  0  0  0999 V2000
    1.6500   -0.5556    0.0000 Cl  0  0  0  0  0  0  0  0  0  0  0  0
    4.5741   -0.7167    0.0000 N   0  0  0  0  0  0  0  0  0  0  0  0
    4.5741   -2.0446    0.0000 N   0  0  0  0  0  0  0  0  0  0  0  0
    3.0791   -0.5556    0.0000 N   0  0  0  0  0  0  0  0  0  0  0  0
    2.3645   -1.7931    0.0000 N   0  0  0  0  0  0  0  0  0  0  0  0
    3.0791   -3.0306    0.0000 N   0  0  0  0  0  0  0  0  0  0  0  0
    3.7935   -0.9681    0.0000 C   0  0  0  0  0  0  0  0  0  0  0  0
    5.0556   -1.3806    0.0000 C   0  0  0  0  0  0  0  0  0  0  0  0
    3.7935   -1.7931    0.0000 C   0  0  0  0  0  0  0  0  0  0  0  0
    3.0791   -2.2056    0.0000 C   0  0  0  0  0  0  0  0  0  0  0  0
    2.3645   -0.9681    0.0000 C   0  0  0  0  0  0  0  0  0  0  0  0
    2.2265   -3.5229    0.0000 H   0  0  0  0  0  0  0  0  0  0  0  0
    3.9317   -3.5229    0.0000 H   0  0  0  0  0  0  0  0  0  0  0  0
  1 11  1  0  0  0  0
  2  7  1  0  0  0  0
  2  8  1  0  0  0  0
  3  8  2  0  0  0  0
  3  9  1  0  0  0  0
  4  7  2  0  0  0  0
  4 11  1  0  0  0  0
  5 10  1  0  0  0  0
  5 11  2  0  0  0  0
  6 10  1  0  0  0  0
  6 12  1  0  0  0  0
  6 13  1  0  0  0  0
  7  9  1  0  0  0  0
  9 10  2  0  0  0  0
M  END
$$$$
Cc1cccc(c1)C
 OpenBabel07182308452D

  8  8  0  0  1  0  0  0  0  0999 V2000
    3.0791   -2.8876    0.0000 C   0  0  0  0  0  0  0  0  0  0  0  0
    3.7935   -3.3001    0.0000 C   0  0  0  0  0  0  0  0  0  0  0  0
    2.3645   -3.3001    0.0000 C   0  0  0  0  0  0  0  0  0  0  0  0
    3.7935   -4.1251    0.0000 C   0  0  0  0  0  0  0  0  0  0  0  0
    2.3645   -4.1251    0.0000 C   0  0  0  0  0  0  0  0  0  0  0  0
    4.5080   -2.8876    0.0000 C   0  0  0  0  0  0  0  0  0  0  0  0
    1.6500   -2.8876    0.0000 C   0  0  0  0  0  0  0  0  0  0  0  0
    3.0791   -4.5376    0.0000 C   0  0  0  0  0  0  0  0  0  0  0  0
  1  2  2  0  0  0  0
  1  3  1  0  0  0  0
  2  4  1  0  0  0  0
  2  6  1  0  0  0  0
  3  5  2  0  0  0  0
  3  7  1  0  0  0  0
  4  8  2  0  0  0  0
  5  8  1  0  0  0  0
M  END
$$$$
Nc1ccc(cc1)O
 OpenBabel07182308452D

 11 11  0  0  0  0  0  0  0  0999 V2000
    2.0930    0.2063    0.0000 O   0  0  0  0  0  0  0  0  0  0  0  0
    4.9509   -1.4438    0.0000 N   0  0  0  0  0  0  0  0  0  0  0  0
    3.5220    0.2063    0.0000 C   0  0  0  0  0  0  0  0  0  0  0  0
    4.2365   -1.0313    0.0000 C   0  0  0  0  0  0  0  0  0  0  0  0
    4.2365   -0.2063    0.0000 C   0  0  0  0  0  0  0  0  0  0  0  0
    2.8075   -0.2063    0.0000 C   0  0  0  0  0  0  0  0  0  0  0  0
    3.5220   -1.4438    0.0000 C   0  0  0  0  0  0  0  0  0  0  0  0
    2.8075   -1.0313    0.0000 C   0  0  0  0  0  0  0  0  0  0  0  0
    2.0931    1.1433    0.0000 H   0  0  0  0  0  0  0  0  0  0  0  0
    4.9509   -2.4283    0.0000 H   0  0  0  0  0  0  0  0  0  0  0  0
    5.8035   -0.9516    0.0000 H   0  0  0  0  0  0  0  0  0  0  0  0
  1  6  1  0  0  0  0
  1  9  1  0  0  0  0
  2  4  1  0  0  0  0
  2 10  1  0  0  0  0
  2 11  1  0  0  0  0
  3  5  1  0  0  0  0
  3  6  2  0  0  0  0
  4  5  2  0  0  0  0
  4  7  1  0  0  0  0
  6  8  1  0  0  0  0
  7  8  2  0  0  0  0
M  END
$$$$
O[C@@H]1C[C@@H]2CC[C@H](C1)N2C
 OpenBabel07182308452D

 13 14  0  0  0  0  0  0  0  0999 V2000
    5.0933   -5.5515    0.0000 C   0  0  1  0  0  0  0  0  0  0  0  0
    6.1822   -6.3701    0.0000 C   0  0  2  0  0  0  0  0  0  0  0  0
    5.6597   -5.9352    0.0000 C   0  0  0  0  0  0  0  0  0  0  0  0
    4.6662   -5.9352    0.0000 C   0  0  1  0  0  0  0  0  0  0  0  0
    4.5215   -5.1055    0.0000 N   0  0  0  0  0  0  0  0  0  0  0  0
    5.9596   -5.5696    0.0000 C   0  0  0  0  0  0  0  0  0  0  0  0
    4.1353   -6.6591    0.0000 C   0  0  0  0  0  0  0  0  0  0  0  0
    4.7670   -6.2764    0.0000 C   0  0  0  0  0  0  0  0  0  0  0  0
    6.1602   -7.1609    0.0000 O   0  0  0  0  0  0  0  0  0  0  0  0
    3.8600   -5.7119    0.0000 H   0  0  0  0  0  0  0  0  0  0  0  0
    5.5023   -4.8311    0.0000 H   0  0  0  0  0  0  0  0  0  0  0  0
    4.0968   -4.3980    0.0000 C   0  0  0  0  0  0  0  0  0  0  0  0
    6.8967   -5.9576    0.0000 H   0  0  0  0  0  0  0  0  0  0  0  0
  1 11  1  6  0  0  0
  1  6  1  0  0  0  0
  1  8  1  0  0  0  0
  2  3  1  0  0  0  0
  2  9  1  0  0  0  0
  2 13  1  1  0  0  0
  3  4  1  0  0  0  0
  4  5  1  0  0  0  0
  4  7  1  0  0  0  0
  4 10  1  1  0  0  0
  5  1  1  0  0  0  0
  5 12  1  0  0  0  0
  6  2  1  0  0  0  0
  7  8  1  0  0  0  0
M  END
$$$$
c1ccc2c(c1)snc2
 OpenBabel07182308452D

  9 10  0  0  0  0  0  0  0  0999 V2000
    1.6500   -1.3068    0.0000 S   0  0  0  0  0  0  0  0  0  0  0  0
    2.2004   -0.6988    0.0000 N   0  0  0  0  0  0  0  0  0  0  0  0
    2.9494   -1.0330    0.0000 C   0  0  0  0  0  0  0  0  0  0  0  0
    2.8643   -1.8488    0.0000 C   0  0  0  0  0  0  0  0  0  0  0  0
    2.0570   -2.0189    0.0000 C   0  0  0  0  0  0  0  0  0  0  0  0
    3.4153   -2.4628    0.0000 C   0  0  0  0  0  0  0  0  0  0  0  0
    1.8007   -2.8031    0.0000 C   0  0  0  0  0  0  0  0  0  0  0  0
    3.1590   -3.2470    0.0000 C   0  0  0  0  0  0  0  0  0  0  0  0
    2.3517   -3.4171    0.0000 C   0  0  0  0  0  0  0  0  0  0  0  0
  1  2  1  0  0  0  0
  1  5  1  0  0  0  0
  2  3  2  0  0  0  0
  3  4  1  0  0  0  0
  4  5  1  0  0  0  0
  4  6  2  0  0  0  0
  5  7  2  0  0  0  0
  6  8  1  0  0  0  0
  7  9  1  0  0  0  0
  8  9  2  0  0  0  0
M  END
$$$$
O=C1Nc2c(C1)cc(c(c2)Cl)C
 OpenBabel07182308452D

 13 14  0  0  0  0  0  0  0  0999 V2000
    5.8073    3.0921    0.0000 Cl  0  0  0  0  0  0  0  0  0  0  0  0
   10.0379    2.2671    0.0000 O   0  0  0  0  0  0  0  0  0  0  0  0
    8.7314    2.9310    0.0000 N   0  0  0  0  0  0  0  0  0  0  0  0
    5.8073    1.4420    0.0000 C   0  0  0  0  0  0  0  0  0  0  0  0
    6.5218    1.8546    0.0000 C   0  0  0  0  0  0  0  0  0  0  0  0
    7.9507    1.8546    0.0000 C   0  0  0  0  0  0  0  0  0  0  0  0
    7.2362    1.4420    0.0000 C   0  0  0  0  0  0  0  0  0  0  0  0
    7.9507    2.6796    0.0000 C   0  0  0  0  0  0  0  0  0  0  0  0
    6.5218    2.6796    0.0000 C   0  0  0  0  0  0  0  0  0  0  0  0
    8.7314    1.6031    0.0000 C   0  0  0  0  0  0  0  0  0  0  0  0
    7.2362    3.0921    0.0000 C   0  0  0  0  0  0  0  0  0  0  0  0
    9.2129    2.2671    0.0000 C   0  0  0  0  0  0  0  0  0  0  0  0
    9.0372    3.8668    0.0000 H   0  0  0  0  0  0  0  0  0  0  0  0
  1  9  1  0  0  0  0
  2 12  2  0  0  0  0
  3  8  1  0  0  0  0
  3 12  1  0  0  0  0
  3 13  1  0  0  0  0
  4  5  1  0  0  0  0
  5  7  1  0  0  0  0
  5  9  2  0  0  0  0
  6  7  2  0  0  0  0
  6  8  1  0  0  0  0
  6 10  1  0  0  0  0
  8 11  2  0  0  0  0
  9 11  1  0  0  0  0
 10 12  1  0  0  0  0
M  END
$$$$
CN1CCC=C2[C@H]1Cc1cn(c3c1c2ccc3)C
 OpenBabel07182308452D

 19 22  0  0  0  0  0  0  0  0999 V2000
   -3.6241    0.0884    0.0000 C   0  0  0  0  0  0  0  0  0  0  0  0
   -4.3386   -0.3241    0.0000 C   0  0  0  0  0  0  0  0  0  0  0  0
   -4.3386   -1.1491    0.0000 C   0  0  0  0  0  0  0  0  0  0  0  0
   -3.6241   -1.5616    0.0000 C   0  0  0  0  0  0  0  0  0  0  0  0
   -2.9096   -1.1491    0.0000 C   0  0  0  0  0  0  0  0  0  0  0  0
   -2.9096   -0.3241    0.0000 C   0  0  0  0  0  0  0  0  0  0  0  0
   -2.1952    0.0884    0.0000 C   0  0  0  0  0  0  0  0  0  0  0  0
   -2.1952   -1.5616    0.0000 C   0  0  0  0  0  0  0  0  0  0  0  0
   -1.4807   -1.1491    0.0000 C   0  0  0  0  0  0  0  0  0  0  0  0
   -1.4807   -0.3241    0.0000 C   0  0  1  0  0  0  0  0  0  0  0  0
   -1.4807    1.3259    0.0000 C   0  0  0  0  0  0  0  0  0  0  0  0
   -2.1952    0.9134    0.0000 C   0  0  0  0  0  0  0  0  0  0  0  0
   -0.7662    0.0884    0.0000 N   0  0  0  0  0  0  0  0  0  0  0  0
   -0.7662    0.9134    0.0000 C   0  0  0  0  0  0  0  0  0  0  0  0
   -2.4087   -2.3585    0.0000 C   0  0  0  0  0  0  0  0  0  0  0  0
   -3.4106   -2.3585    0.0000 N   0  0  0  0  0  0  0  0  0  0  0  0
   -0.7662   -0.7366    0.0000 H   0  0  0  0  0  0  0  0  0  0  0  0
   -0.0518   -0.3241    0.0000 C   0  0  0  0  0  0  0  0  0  0  0  0
   -3.8231   -3.0730    0.0000 C   0  0  0  0  0  0  0  0  0  0  0  0
  1  2  1  0  0  0  0
  1  6  2  0  0  0  0
  2  3  2  0  0  0  0
  3  4  1  0  0  0  0
  4  5  2  0  0  0  0
  4 16  1  0  0  0  0
  5  8  1  0  0  0  0
  6  5  1  0  0  0  0
  7  6  1  0  0  0  0
  7 10  1  0  0  0  0
  8  9  1  0  0  0  0
  8 15  2  0  0  0  0
  9 10  1  0  0  0  0
 10 13  1  0  0  0  0
 10 17  1  1  0  0  0
 11 12  1  0  0  0  0
 11 14  1  0  0  0  0
 12  7  2  0  0  0  0
 13 14  1  0  0  0  0
 13 18  1  0  0  0  0
 16 15  1  0  0  0  0
 16 19  1  0  0  0  0
M  END
$$$$
CN1CCC[C@H]2[C@H]1Cc1c[nH]c3c1c2ccc3
 OpenBabel07182308452D

 20 23  0  0  1  0  0  0  0  0999 V2000
    5.2928   -0.1486    0.0000 N   0  0  0  0  0  0  0  0  0  0  0  0
    6.2679   -3.5446    0.0000 N   0  0  0  0  0  0  0  0  0  0  0  0
    4.5651   -1.4203    0.0000 C   0  0  2  0  0  0  0  0  0  0  0  0
    5.2796   -1.0078    0.0000 C   0  0  1  0  0  0  0  0  0  0  0  0
    3.8143   -1.0022    0.0000 C   0  0  0  0  0  0  0  0  0  0  0  0
    3.8077   -0.1429    0.0000 C   0  0  0  0  0  0  0  0  0  0  0  0
    5.9940   -1.4203    0.0000 C   0  0  0  0  0  0  0  0  0  0  0  0
    4.5519    0.2868    0.0000 C   0  0  0  0  0  0  0  0  0  0  0  0
    4.5651   -2.2453    0.0000 C   0  0  0  0  0  0  0  0  0  0  0  0
    5.2796   -2.6578    0.0000 C   0  0  0  0  0  0  0  0  0  0  0  0
    5.9940   -2.2453    0.0000 C   0  0  0  0  0  0  0  0  0  0  0  0
    6.0120    0.2556    0.0000 C   0  0  0  0  0  0  0  0  0  0  0  0
    5.2928   -3.5171    0.0000 C   0  0  0  0  0  0  0  0  0  0  0  0
    3.8143   -2.6635    0.0000 C   0  0  0  0  0  0  0  0  0  0  0  0
    6.6021   -2.7957    0.0000 C   0  0  0  0  0  0  0  0  0  0  0  0
    4.5519   -3.9525    0.0000 C   0  0  0  0  0  0  0  0  0  0  0  0
    3.8077   -3.5228    0.0000 C   0  0  0  0  0  0  0  0  0  0  0  0
    3.9961   -1.7548    0.0000 H   0  0  0  0  0  0  0  0  0  0  0  0
    5.8536   -0.6823    0.0000 H   0  0  0  0  0  0  0  0  0  0  0  0
    6.7920   -4.3780    0.0000 H   0  0  0  0  0  0  0  0  0  0  0  0
  1  4  1  0  0  0  0
  1  8  1  0  0  0  0
  1 12  1  0  0  0  0
  2 13  1  0  0  0  0
  2 15  1  0  0  0  0
  2 20  1  0  0  0  0
  3  4  1  6  0  0  0
  3  5  1  0  0  0  0
  3  9  1  0  0  0  0
  3 18  1  0  0  0  0
  4  7  1  0  0  0  0
  4 19  1  1  0  0  0
  5  6  1  0  0  0  0
  6  8  1  0  0  0  0
  7 11  1  0  0  0  0
  9 10  2  0  0  0  0
  9 14  1  0  0  0  0
 10 11  1  0  0  0  0
 10 13  1  0  0  0  0
 11 15  2  0  0  0  0
 13 16  2  0  0  0  0
 14 17  2  0  0  0  0
 16 17  1  0  0  0  0
M  END
$$$$
Ic1c[nH]c(=O)[nH]c1=O
 OpenBabel07182308452D

 10 10  0  0  0  0  0  0  0  0999 V2000
   -0.0001    0.5203    0.0000 N   0  0  0  0  0  0  0  0  0  0  0  0
    0.7144    0.9328    0.0000 C   0  0  0  0  0  0  0  0  0  0  0  0
   -0.7145    0.9328    0.0000 C   0  0  0  0  0  0  0  0  0  0  0  0
    0.7144    1.7578    0.0000 N   0  0  0  0  0  0  0  0  0  0  0  0
    1.4289    0.5203    0.0000 O   0  0  0  0  0  0  0  0  0  0  0  0
   -0.7145    1.7578    0.0000 C   0  0  0  0  0  0  0  0  0  0  0  0
   -0.0001    2.1703    0.0000 C   0  0  0  0  0  0  0  0  0  0  0  0
   -0.0001    2.9953    0.0000 O   0  0  0  0  0  0  0  0  0  0  0  0
   -1.4289    2.1703    0.0000 I   0  0  0  0  0  0  0  0  0  0  0  0
    1.5670    2.2501    0.0000 H   0  0  0  0  0  0  0  0  0  0  0  0
  1  2  1  0  0  0  0
  1  3  1  0  0  0  0
  2  4  1  0  0  0  0
  2  5  2  0  0  0  0
  3  6  2  0  0  0  0
  4  7  1  0  0  0  0
  4 10  1  0  0  0  0
  6  7  1  0  0  0  0
  6  9  1  0  0  0  0
  7  8  2  0  0  0  0
M  END
$$$$
CC1OCCO1
 OpenBabel07182308452D

  6  6  0  0  0  0  0  0  0  0999 V2000
    2.7922   -0.4533    0.0000 C   0  0  0  0  0  0  0  0  0  0  0  0
    2.9798    0.3501    0.0000 C   0  0  0  0  0  0  0  0  0  0  0  0
    1.9917   -0.2031    0.0000 O   0  0  0  0  0  0  0  0  0  0  0  0
    2.7922   -1.2382    0.0000 O   0  0  0  0  0  0  0  0  0  0  0  0
    1.4476   -0.8379    0.0000 C   0  0  0  0  0  0  0  0  0  0  0  0
    2.0012   -1.5227    0.0000 C   0  0  0  0  0  0  0  0  0  0  0  0
  1  2  1  0  0  0  0
  3  1  1  0  0  0  0
  4  1  1  0  0  0  0
  5  3  1  0  0  0  0
  6  4  1  0  0  0  0
  6  5  1  0  0  0  0
M  END
$$$$
c1ncn[nH]1
 OpenBabel07182308452D

  5  5  0  0  0  0  0  0  0  0999 V2000
    2.4764    0.9849    0.0000 N   0  0  0  0  0  0  0  0  0  0  0  0
    1.3133    1.7571    0.0000 N   0  0  0  0  0  0  0  0  0  0  0  0
    2.7327    1.7948    0.0000 N   0  0  0  0  0  0  0  0  0  0  0  0
    2.0167    2.2855    0.0000 C   0  0  0  0  0  0  0  0  0  0  0  0
    1.5883    0.9693    0.0000 C   0  0  0  0  0  0  0  0  0  0  0  0
  2  5  2  0  0  0  0
  3  1  1  0  0  0  0
  4  3  2  0  0  0  0
  4  2  1  0  0  0  0
  5  1  1  0  0  0  0
M  END
$$$$
O=C1NCC(=O)N1
 OpenBabel07182308452D

  9  9  0  0  0  0  0  0  0  0999 V2000
    3.5022    1.7788    0.0000 O   0  0  0  0  0  0  0  0  0  0  0  0
    6.2311    0.7855    0.0000 O   0  0  0  0  0  0  0  0  0  0  0  0
    4.8988    0.1642    0.0000 N   0  0  0  0  0  0  0  0  0  0  0  0
    4.9453    1.4983    0.0000 N   0  0  0  0  0  0  0  0  0  0  0  0
    4.1235    0.4463    0.0000 C   0  0  0  0  0  0  0  0  0  0  0  0
    4.1523    1.2708    0.0000 C   0  0  0  0  0  0  0  0  0  0  0  0
    5.4066    0.8143    0.0000 C   0  0  0  0  0  0  0  0  0  0  0  0
    5.1703   -0.7821    0.0000 H   0  0  0  0  0  0  0  0  0  0  0  0
    5.2820    2.4234    0.0000 H   0  0  0  0  0  0  0  0  0  0  0  0
  1  6  2  0  0  0  0
  2  7  2  0  0  0  0
  3  5  1  0  0  0  0
  3  7  1  0  0  0  0
  3  8  1  0  0  0  0
  4  6  1  0  0  0  0
  4  7  1  0  0  0  0
  4  9  1  0  0  0  0
  5  6  1  0  0  0  0
M  END
$$$$
O=C1CC[C@]2(C(=C1)[C@@H](C)C[C@@H]1[C@@H]2[C@@H](O)C[C@]2([C@H]1CCC2)C)C
 OpenBabel07182308452D

 26 29  0  0  1  0  0  0  0  0999 V2000
    3.9559    1.2662    0.0000 O   0  0  0  0  0  0  0  0  0  0  0  0
    1.6500   -1.6644    0.0000 O   0  0  0  0  0  0  0  0  0  0  0  0
    6.0993    0.0287    0.0000 C   0  0  2  0  0  0  0  0  0  0  0  0
    6.0993    0.8537    0.0000 C   0  0  2  0  0  0  0  0  0  0  0  0
    5.3849   -0.3838    0.0000 C   0  0  1  0  0  0  0  0  0  0  0  0
    4.6703    0.0287    0.0000 C   0  0  1  0  0  0  0  0  0  0  0  0
    3.9196   -0.3894    0.0000 C   0  0  2  0  0  0  0  0  0  0  0  0
    5.3849    1.2662    0.0000 C   0  0  0  0  0  0  0  0  0  0  0  0
    4.6703    0.8537    0.0000 C   0  0  2  0  0  0  0  0  0  0  0  0
    6.8799    1.1052    0.0000 C   0  0  0  0  0  0  0  0  0  0  0  0
    6.8799   -0.2227    0.0000 C   0  0  0  0  0  0  0  0  0  0  0  0
    5.3981   -1.2430    0.0000 C   0  0  0  0  0  0  0  0  0  0  0  0
    7.3614    0.4412    0.0000 C   0  0  0  0  0  0  0  0  0  0  0  0
    4.6572   -1.6784    0.0000 C   0  0  1  0  0  0  0  0  0  0  0  0
    3.9130   -1.2487    0.0000 C   0  0  0  0  0  0  0  0  0  0  0  0
    6.0993    1.6787    0.0000 C   0  0  0  0  0  0  0  0  0  0  0  0
    3.1550    0.0760    0.0000 C   0  0  0  0  0  0  0  0  0  0  0  0
    3.9259    0.4356    0.0000 C   0  0  0  0  0  0  0  0  0  0  0  0
    2.3729   -0.3596    0.0000 C   0  0  0  0  0  0  0  0  0  0  0  0
    3.1413   -1.7022    0.0000 C   0  0  0  0  0  0  0  0  0  0  0  0
    4.6603   -2.5034    0.0000 C   0  0  0  0  0  0  0  0  0  0  0  0
    2.3660   -1.2547    0.0000 C   0  0  0  0  0  0  0  0  0  0  0  0
    6.1691   -0.6276    0.0000 H   0  0  0  0  0  0  0  0  0  0  0  0
    5.9589   -0.7093    0.0000 H   0  0  0  0  0  0  0  0  0  0  0  0
    5.2420    0.3587    0.0000 H   0  0  0  0  0  0  0  0  0  0  0  0
    3.9559    2.2362    0.0000 H   0  0  0  0  0  0  0  0  0  0  0  0
  1 26  1  0  0  0  0
  2 22  2  0  0  0  0
  3  4  1  6  0  0  0
  3 11  1  0  0  0  0
  3 23  1  0  0  0  0
  4  8  1  0  0  0  0
  4 10  1  0  0  0  0
  4 16  1  1  0  0  0
  5  3  1  6  0  0  0
  5 12  1  0  0  0  0
  5 24  1  0  0  0  0
  6  5  1  1  0  0  0
  6 25  1  0  0  0  0
  7  6  1  6  0  0  0
  7 15  1  0  0  0  0
  7 17  1  0  0  0  0
  7 18  1  0  0  0  0
  8  9  1  0  0  0  0
  9  1  1  0  0  0  0
  9  6  1  1  0  0  0
 10 13  1  0  0  0  0
 11 13  1  0  0  0  0
 12 14  1  0  0  0  0
 14 15  1  0  0  0  0
 14 21  1  6  0  0  0
 15 20  2  0  0  0  0
 17 19  1  0  0  0  0
 19 22  1  0  0  0  0
 20 22  1  0  0  0  0
M  END
$$$$
OC1=CC(=O)[C@@]2([C@H](C1)[C@@H](O)[C@H]1C(=C2O)C(=O)c2c([C@@H]1C)cccc2O)O
 OpenBabel07182308452D

 33 36  0  0  0  0  0  0  0  0999 V2000
    0.7144    0.6187    0.0000 C   0  0  2  0  0  0  0  0  0  0  0  0
   -0.7144    0.6187    0.0000 C   0  0  0  0  0  0  0  0  0  0  0  0
    0.7144   -0.2062    0.0000 C   0  0  2  0  0  0  0  0  0  0  0  0
    2.1433    0.6187    0.0000 C   0  0  0  0  0  0  0  0  0  0  0  0
    0.0000    1.0312    0.0000 C   0  0  0  0  0  0  0  0  0  0  0  0
    1.4289    1.0312    0.0000 C   0  0  0  0  0  0  0  0  0  0  0  0
    2.1433   -0.2062    0.0000 C   0  0  0  0  0  0  0  0  0  0  0  0
   -1.4289    1.0312    0.0000 C   0  0  0  0  0  0  0  0  0  0  0  0
   -0.7144   -0.2062    0.0000 C   0  0  2  0  0  0  0  0  0  0  0  0
    1.4289   -0.6187    0.0000 C   0  0  0  0  0  0  0  0  0  0  0  0
   -2.1434    0.6187    0.0000 C   0  0  0  0  0  0  0  0  0  0  0  0
    0.0000   -0.6187    0.0000 C   0  0  2  0  0  0  0  0  0  0  0  0
   -2.1434   -0.2062    0.0000 C   0  0  0  0  0  0  0  0  0  0  0  0
   -1.4289   -0.6187    0.0000 C   0  0  2  0  0  0  0  0  0  0  0  0
    1.4289    1.8562    0.0000 O   0  0  0  0  0  0  0  0  0  0  0  0
   -1.4289    1.8562    0.0000 O   0  0  0  0  0  0  0  0  0  0  0  0
   -2.8578    1.0312    0.0000 C   0  0  0  0  0  0  0  0  0  0  0  0
    0.7144    1.4437    0.0000 O   0  0  0  0  0  0  0  0  0  0  0  0
    0.0000    1.8562    0.0000 O   0  0  0  0  0  0  0  0  0  0  0  0
    2.8578   -0.6187    0.0000 O   0  0  0  0  0  0  0  0  0  0  0  0
    0.0000   -1.4437    0.0000 O   0  0  0  0  0  0  0  0  0  0  0  0
   -2.8578   -0.6187    0.0000 C   0  0  0  0  0  0  0  0  0  0  0  0
   -1.4289   -1.4437    0.0000 C   0  0  0  0  0  0  0  0  0  0  0  0
   -2.8578    1.8562    0.0000 O   0  0  0  0  0  0  0  0  0  0  0  0
   -3.5723   -0.2062    0.0000 C   0  0  0  0  0  0  0  0  0  0  0  0
   -3.5723    0.6187    0.0000 C   0  0  0  0  0  0  0  0  0  0  0  0
   -0.7144   -1.0312    0.0000 H   0  0  0  0  0  0  0  0  0  0  0  0
    0.7144   -1.0312    0.0000 H   0  0  0  0  0  0  0  0  0  0  0  0
    1.5544    1.9287    0.0000 H   0  0  0  0  0  0  0  0  0  0  0  0
    0.8115    2.3247    0.0000 H   0  0  0  0  0  0  0  0  0  0  0  0
    2.8578   -1.5557    0.0000 H   0  0  0  0  0  0  0  0  0  0  0  0
   -0.8400   -1.9287    0.0000 H   0  0  0  0  0  0  0  0  0  0  0  0
   -2.0463    2.3247    0.0000 H   0  0  0  0  0  0  0  0  0  0  0  0
  1  3  1  1  0  0  0
  1 18  1  0  0  0  0
  3 28  1  1  0  0  0
  5  1  1  0  0  0  0
  5  2  2  0  0  0  0
  6  1  1  0  0  0  0
  6  4  1  0  0  0  0
  7  4  2  0  0  0  0
  8  2  1  0  0  0  0
  9  2  1  0  0  0  0
  9 27  1  1  0  0  0
 10  3  1  0  0  0  0
 10  7  1  0  0  0  0
 11  8  1  0  0  0  0
 12  3  1  1  0  0  0
 12  9  1  0  0  0  0
 12 21  1  0  0  0  0
 13 11  1  0  0  0  0
 14  9  1  1  0  0  0
 14 13  1  0  0  0  0
 14 23  1  0  0  0  0
 15  6  2  0  0  0  0
 16  8  2  0  0  0  0
 17 11  2  0  0  0  0
 18 29  1  0  0  0  0
 19  5  1  0  0  0  0
 19 30  1  0  0  0  0
 20  7  1  0  0  0  0
 20 31  1  0  0  0  0
 21 32  1  0  0  0  0
 22 13  2  0  0  0  0
 24 17  1  0  0  0  0
 24 33  1  0  0  0  0
 25 22  1  0  0  0  0
 26 17  1  0  0  0  0
 26 25  2  0  0  0  0
M  END
$$$$
OC1=CC(=O)[C@@]2([C@H](C1)C[C@H]1C(=C2O)C(=O)c2c([C@@]1(C)O)cccc2O)O
 OpenBabel07182308452D

 33 36  0  0  0  0  0  0  0  0999 V2000
   -6.3822   -0.4136    0.0000 C   0  0  0  0  0  0  0  0  0  0  0  0
   -6.3822    0.4113    0.0000 C   0  0  0  0  0  0  0  0  0  0  0  0
   -5.6677    0.8239    0.0000 C   0  0  0  0  0  0  0  0  0  0  0  0
   -4.9531    0.4113    0.0000 C   0  0  0  0  0  0  0  0  0  0  0  0
   -4.9531   -0.4136    0.0000 C   0  0  0  0  0  0  0  0  0  0  0  0
   -5.6677   -0.8262    0.0000 C   0  0  0  0  0  0  0  0  0  0  0  0
   -4.2386    0.8239    0.0000 C   0  0  0  0  0  0  0  0  0  0  0  0
   -3.5241    0.4113    0.0000 C   0  0  0  0  0  0  0  0  0  0  0  0
   -3.5241   -0.4136    0.0000 C   0  0  1  0  0  0  0  0  0  0  0  0
   -4.2386   -0.8262    0.0000 C   0  0  1  0  0  0  0  0  0  0  0  0
   -2.8095    0.8239    0.0000 C   0  0  0  0  0  0  0  0  0  0  0  0
   -2.0950    0.4113    0.0000 C   0  0  1  0  0  0  0  0  0  0  0  0
   -2.0950   -0.4136    0.0000 C   0  0  1  0  0  0  0  0  0  0  0  0
   -2.8095   -0.8262    0.0000 C   0  0  0  0  0  0  0  0  0  0  0  0
   -1.3805    0.8239    0.0000 C   0  0  0  0  0  0  0  0  0  0  0  0
   -0.6658    0.4113    0.0000 C   0  0  0  0  0  0  0  0  0  0  0  0
   -0.6658   -0.4136    0.0000 C   0  0  0  0  0  0  0  0  0  0  0  0
   -1.3805   -0.8262    0.0000 C   0  0  0  0  0  0  0  0  0  0  0  0
   -5.6677    1.6488    0.0000 O   0  0  0  0  0  0  0  0  0  0  0  0
   -4.2386    1.6489    0.0000 O   0  0  0  0  0  0  0  0  0  0  0  0
   -2.8095    1.6488    0.0000 O   0  0  0  0  0  0  0  0  0  0  0  0
   -1.3805    1.6489    0.0000 O   0  0  0  0  0  0  0  0  0  0  0  0
    0.0619   -0.8341    0.0000 O   0  0  0  0  0  0  0  0  0  0  0  0
   -4.2386   -1.6512    0.0000 C   0  0  0  0  0  0  0  0  0  0  0  0
   -4.9520   -1.2380    0.0000 O   0  0  0  0  0  0  0  0  0  0  0  0
   -3.5295   -1.2380    0.0000 H   0  0  0  0  0  0  0  0  0  0  0  0
   -2.0950   -1.2387    0.0000 H   0  0  0  0  0  0  0  0  0  0  0  0
   -2.0950    1.2364    0.0000 O   0  0  0  0  0  0  0  0  0  0  0  0
   -4.8562    2.1173    0.0000 H   0  0  0  0  0  0  0  0  0  0  0  0
   -1.9980    2.1173    0.0000 H   0  0  0  0  0  0  0  0  0  0  0  0
    0.0616   -1.7711    0.0000 H   0  0  0  0  0  0  0  0  0  0  0  0
   -5.7920   -0.7529    0.0000 H   0  0  0  0  0  0  0  0  0  0  0  0
   -1.2550    1.7214    0.0000 H   0  0  0  0  0  0  0  0  0  0  0  0
  1  2  2  0  0  0  0
  1  6  1  0  0  0  0
  2  3  1  0  0  0  0
  3  4  2  0  0  0  0
  3 19  1  0  0  0  0
  4  5  1  0  0  0  0
  4  7  1  0  0  0  0
  5  6  2  0  0  0  0
  5 10  1  0  0  0  0
  7  8  1  0  0  0  0
  7 20  2  0  0  0  0
  8  9  1  0  0  0  0
  8 11  2  0  0  0  0
  9 10  1  6  0  0  0
  9 14  1  0  0  0  0
  9 26  1  0  0  0  0
 10 24  1  1  0  0  0
 10 25  1  0  0  0  0
 11 12  1  0  0  0  0
 11 21  1  0  0  0  0
 12 13  1  1  0  0  0
 12 15  1  0  0  0  0
 12 28  1  0  0  0  0
 13 14  1  0  0  0  0
 13 18  1  0  0  0  0
 13 27  1  1  0  0  0
 15 16  1  0  0  0  0
 15 22  2  0  0  0  0
 16 17  2  0  0  0  0
 17 18  1  0  0  0  0
 17 23  1  0  0  0  0
 19 29  1  0  0  0  0
 21 30  1  0  0  0  0
 23 31  1  0  0  0  0
 25 32  1  0  0  0  0
 28 33  1  0  0  0  0
M  END
$$$$
Cn1cncc1
 OpenBabel07182308452D

  6  6  0  0  0  0  0  0  0  0999 V2000
    4.1251    1.0153    0.0000 N   0  0  0  0  0  0  0  0  0  0  0  0
    4.5376    2.2848    0.0000 N   0  0  0  0  0  0  0  0  0  0  0  0
    4.1251    0.1902    0.0000 C   0  0  0  0  0  0  0  0  0  0  0  0
    3.4577    1.5002    0.0000 C   0  0  0  0  0  0  0  0  0  0  0  0
    4.7925    1.5002    0.0000 C   0  0  0  0  0  0  0  0  0  0  0  0
    3.7126    2.2848    0.0000 C   0  0  0  0  0  0  0  0  0  0  0  0
  1  3  1  0  0  0  0
  1  4  1  0  0  0  0
  1  5  1  0  0  0  0
  2  5  2  0  0  0  0
  2  6  1  0  0  0  0
  4  6  2  0  0  0  0
M  END
$$$$
[Ca+2]
 OpenBabel07182308452D

  1  0  0  0  0  0  0  0  0  0999 V2000
    3.7932    0.2063    0.0000 Ca  0  2  0  0  0 15  0  0  0  0  0  0
M  CHG  1   1   2
M  END
$$$$
[O-]C(=O)C
 OpenBabel07182308452D

  4  3  0  0  0  0  0  0  0  0999 V2000
    3.0788    0.6188    0.0000 O   0  5  0  0  0  0  0  0  0  0  0  0
    2.3643   -0.6188    0.0000 O   0  0  0  0  0  0  0  0  0  0  0  0
    1.6499    0.6188    0.0000 C   0  0  0  0  0  0  0  0  0  0  0  0
    2.3643    0.2063    0.0000 C   0  0  0  0  0  0  0  0  0  0  0  0
  1  4  1  0  0  0  0
  2  4  2  0  0  0  0
  3  4  1  0  0  0  0
M  CHG  1   1  -1
M  END
$$$$
N[C@@H]1CONC1=O
 OpenBabel07182308452D

 10 10  0  0  0  0  0  0  0  0999 V2000
    0.0000    0.0000    0.0000 O   0  0  0  0  0  0  0  0  0  0  0  0
    0.6674   -0.4849    0.0000 C   0  0  0  0  0  0  0  0  0  0  0  0
   -0.6674   -0.4849    0.0000 N   0  0  0  0  0  0  0  0  0  0  0  0
    0.4125   -1.2695    0.0000 C   0  0  1  0  0  0  0  0  0  0  0  0
    0.8974   -1.9370    0.0000 N   0  0  0  0  0  0  0  0  0  0  0  0
   -0.4125   -1.2695    0.0000 C   0  0  0  0  0  0  0  0  0  0  0  0
   -0.8974   -1.9370    0.0000 O   0  0  0  0  0  0  0  0  0  0  0  0
   -1.6037   -0.1807    0.0000 H   0  0  0  0  0  0  0  0  0  0  0  0
    0.4825   -2.8688    0.0000 H   0  0  0  0  0  0  0  0  0  0  0  0
    1.9118   -1.8304    0.0000 H   0  0  0  0  0  0  0  0  0  0  0  0
  1  2  1  0  0  0  0
  1  3  1  0  0  0  0
  2  4  1  0  0  0  0
  3  8  1  0  0  0  0
  4  6  1  0  0  0  0
  4  5  1  1  0  0  0
  5  9  1  0  0  0  0
  5 10  1  0  0  0  0
  6  3  1  0  0  0  0
  6  7  2  0  0  0  0
M  END
$$$$
O=C1NC2=Nc3c(CN2C1)c(Cl)c(cc3)Cl
 OpenBabel07182308452D

 17 19  0  0  0  0  0  0  0  0999 V2000
    4.5232   -0.7732    0.0000 C   0  0  0  0  0  0  0  0  0  0  0  0
    4.5232    0.0454    0.0000 N   0  0  0  0  0  0  0  0  0  0  0  0
    3.0756    0.0454    0.0000 C   0  0  0  0  0  0  0  0  0  0  0  0
    3.7862   -1.1938    0.0000 N   0  0  0  0  0  0  0  0  0  0  0  0
    3.0756   -0.7732    0.0000 C   0  0  0  0  0  0  0  0  0  0  0  0
    3.7862    0.4718    0.0000 C   0  0  0  0  0  0  0  0  0  0  0  0
    2.3593    0.4547    0.0000 C   0  0  0  0  0  0  0  0  0  0  0  0
    1.6600    0.0454    0.0000 C   0  0  0  0  0  0  0  0  0  0  0  0
    2.3593   -1.1825    0.0000 C   0  0  0  0  0  0  0  0  0  0  0  0
    1.6600   -0.7732    0.0000 C   0  0  0  0  0  0  0  0  0  0  0  0
    2.3593    1.2734    0.0000 Cl  0  0  0  0  0  0  0  0  0  0  0  0
    0.9437    0.4547    0.0000 Cl  0  0  0  0  0  0  0  0  0  0  0  0
    5.3079    0.3067    0.0000 C   0  0  0  0  0  0  0  0  0  0  0  0
    5.3079   -1.0281    0.0000 N   0  0  0  0  0  0  0  0  0  0  0  0
    5.7928   -0.3607    0.0000 C   0  0  0  0  0  0  0  0  0  0  0  0
    6.6178   -0.3607    0.0000 O   0  0  0  0  0  0  0  0  0  0  0  0
    5.6122   -1.9644    0.0000 H   0  0  0  0  0  0  0  0  0  0  0  0
  1 14  1  0  0  0  0
  2  1  1  0  0  0  0
  3  5  1  0  0  0  0
  4  1  2  0  0  0  0
  5  4  1  0  0  0  0
  6  2  1  0  0  0  0
  6  3  1  0  0  0  0
  7  3  2  0  0  0  0
  8 10  2  0  0  0  0
  8  7  1  0  0  0  0
  9  5  2  0  0  0  0
 10  9  1  0  0  0  0
 11  7  1  0  0  0  0
 12  8  1  0  0  0  0
 13  2  1  0  0  0  0
 13 15  1  0  0  0  0
 14 15  1  0  0  0  0
 14 17  1  0  0  0  0
 15 16  2  0  0  0  0
M  END
$$$$
CCCl
 OpenBabel07182308452D

  3  2  0  0  0  0  0  0  0  0999 V2000
    7.3659   -0.4125    0.0000 Cl  0  0  0  0  0  0  0  0  0  0  0  0
    5.9370   -0.4125    0.0000 C   0  0  0  0  0  0  0  0  0  0  0  0
    6.6515    0.0000    0.0000 C   0  0  0  0  0  0  0  0  0  0  0  0
  1  3  1  0  0  0  0
  2  3  1  0  0  0  0
M  END
$$$$
CCl
 OpenBabel07182308452D

  2  1  0  0  0  0  0  0  0  0999 V2000
    1.6500   -0.4125    0.0000 Cl  0  0  0  0  0  0  0  0  0  0  0  0
    2.3645    0.0000    0.0000 C   0  0  0  0  0  0  0  0  0  0  0  0
  1  2  1  0  0  0  0
M  END
$$$$
NN=O
 OpenBabel07182308452D

  3  2  0  0  0  0  0  0  0  0999 V2000
    5.9370    1.2375    0.0000 O   0  0  0  0  0  0  0  0  0  0  0  0
    5.2224    0.0000    0.0000 N   0  0  0  0  0  0  0  0  0  0  0  0
    5.2224    0.8250    0.0000 N   0  0  0  0  0  0  0  0  0  0  0  0
  1  3  2  0  0  0  0
  2  3  1  0  0  0  0
M  END
$$$$
Cc1nocc1C
 OpenBabel07182308452D

  7  7  0  0  0  0  0  0  0  0999 V2000
    3.2758    2.7212    0.0000 O   0  0  0  0  0  0  0  0  0  0  0  0
    4.0828    2.8927    0.0000 N   0  0  0  0  0  0  0  0  0  0  0  0
    3.1895    1.9007    0.0000 C   0  0  0  0  0  0  0  0  0  0  0  0
    3.9433    1.5651    0.0000 C   0  0  0  0  0  0  0  0  0  0  0  0
    4.4953    2.1782    0.0000 C   0  0  0  0  0  0  0  0  0  0  0  0
    4.1148    0.7581    0.0000 C   0  0  0  0  0  0  0  0  0  0  0  0
    5.3158    2.0920    0.0000 C   0  0  0  0  0  0  0  0  0  0  0  0
  1  2  1  0  0  0  0
  1  3  1  0  0  0  0
  2  5  2  0  0  0  0
  3  4  2  0  0  0  0
  4  5  1  0  0  0  0
  4  6  1  0  0  0  0
  5  7  1  0  0  0  0
M  END
$$$$
Cc1ccccc1N
 OpenBabel07182308452D

  8  8  0  0  0  0  0  0  0  0999 V2000
    3.0791    0.0000    0.0000 N   0  0  0  0  0  0  0  0  0  0  0  0
    3.0791   -0.8250    0.0000 C   0  0  0  0  0  0  0  0  0  0  0  0
    2.3645   -1.2375    0.0000 C   0  0  0  0  0  0  0  0  0  0  0  0
    3.7935   -1.2375    0.0000 C   0  0  0  0  0  0  0  0  0  0  0  0
    2.3645   -2.0625    0.0000 C   0  0  0  0  0  0  0  0  0  0  0  0
    1.6500   -0.8250    0.0000 C   0  0  0  0  0  0  0  0  0  0  0  0
    3.7935   -2.0625    0.0000 C   0  0  0  0  0  0  0  0  0  0  0  0
    3.0791   -2.4751    0.0000 C   0  0  0  0  0  0  0  0  0  0  0  0
  1  2  1  0  0  0  0
  2  3  1  0  0  0  0
  2  4  2  0  0  0  0
  3  5  2  0  0  0  0
  3  6  1  0  0  0  0
  4  7  1  0  0  0  0
  5  8  1  0  0  0  0
  7  8  2  0  0  0  0
M  END
$$$$
O=c1oc2ccccc2c(c1C)O
 OpenBabel07182308452D

 14 15  0  0  0  0  0  0  0  0999 V2000
    3.7294   -3.9243    0.0000 C   0  0  0  0  0  0  0  0  0  0  0  0
    3.0147   -3.5121    0.0000 C   0  0  0  0  0  0  0  0  0  0  0  0
    3.7294   -4.7435    0.0000 C   0  0  0  0  0  0  0  0  0  0  0  0
    4.7048   -3.3671    0.0000 C   0  0  0  0  0  0  0  0  0  0  0  0
    3.0147   -5.1557    0.0000 O   0  0  0  0  0  0  0  0  0  0  0  0
    2.3111   -3.9243    0.0000 C   0  0  0  0  0  0  0  0  0  0  0  0
    2.3111   -4.7435    0.0000 C   0  0  0  0  0  0  0  0  0  0  0  0
    4.4440   -5.1613    0.0000 O   0  0  0  0  0  0  0  0  0  0  0  0
    3.0147   -2.6873    0.0000 O   0  0  0  0  0  0  0  0  0  0  0  0
    1.5964   -3.5121    0.0000 C   0  0  0  0  0  0  0  0  0  0  0  0
    1.5964   -5.1557    0.0000 C   0  0  0  0  0  0  0  0  0  0  0  0
    0.8818   -3.9243    0.0000 C   0  0  0  0  0  0  0  0  0  0  0  0
    0.8818   -4.7435    0.0000 C   0  0  0  0  0  0  0  0  0  0  0  0
    3.8262   -2.2188    0.0000 H   0  0  0  0  0  0  0  0  0  0  0  0
  2  1  2  0  0  0  0
  3  1  1  0  0  0  0
  4  1  1  0  0  0  0
  5  3  1  0  0  0  0
  6  2  1  0  0  0  0
  7  5  1  0  0  0  0
  7  6  2  0  0  0  0
  8  3  2  0  0  0  0
  9  2  1  0  0  0  0
  9 14  1  0  0  0  0
 10  6  1  0  0  0  0
 11  7  1  0  0  0  0
 12 10  2  0  0  0  0
 13 11  2  0  0  0  0
 13 12  1  0  0  0  0
M  END
$$$$
O=c1cc(O)c2c(o1)cccc2
 OpenBabel07182308452D

 13 14  0  0  0  0  0  0  0  0999 V2000
    5.6802   -3.9243    0.0000 C   0  0  0  0  0  0  0  0  0  0  0  0
    6.3949   -3.5121    0.0000 C   0  0  0  0  0  0  0  0  0  0  0  0
    5.6802   -4.7435    0.0000 C   0  0  0  0  0  0  0  0  0  0  0  0
    6.3949   -5.1557    0.0000 O   0  0  0  0  0  0  0  0  0  0  0  0
    7.0985   -3.9243    0.0000 C   0  0  0  0  0  0  0  0  0  0  0  0
    7.0985   -4.7435    0.0000 C   0  0  0  0  0  0  0  0  0  0  0  0
    4.9655   -5.1613    0.0000 O   0  0  0  0  0  0  0  0  0  0  0  0
    6.3949   -2.6873    0.0000 O   0  0  0  0  0  0  0  0  0  0  0  0
    7.8132   -3.5121    0.0000 C   0  0  0  0  0  0  0  0  0  0  0  0
    7.8132   -5.1557    0.0000 C   0  0  0  0  0  0  0  0  0  0  0  0
    8.5279   -3.9243    0.0000 C   0  0  0  0  0  0  0  0  0  0  0  0
    8.5279   -4.7435    0.0000 C   0  0  0  0  0  0  0  0  0  0  0  0
    7.2064   -2.2188    0.0000 H   0  0  0  0  0  0  0  0  0  0  0  0
  2  1  2  0  0  0  0
  3  1  1  0  0  0  0
  4  3  1  0  0  0  0
  5  2  1  0  0  0  0
  6  4  1  0  0  0  0
  6  5  2  0  0  0  0
  7  3  2  0  0  0  0
  8  2  1  0  0  0  0
  8 13  1  0  0  0  0
  9  5  1  0  0  0  0
 10  6  1  0  0  0  0
 11  9  2  0  0  0  0
 12 10  2  0  0  0  0
 12 11  1  0  0  0  0
M  END
$$$$
CC1=CN2[C@H](SC1)[C@@H](C2=O)N
 OpenBabel07182308452D

 13 14  0  0  0  0  0  0  0  0999 V2000
   19.6254   -0.1331    0.0000 S   0  0  0  0  0  0  0  0  0  0  0  0
   18.9109   -0.5456    0.0000 C   0  0  1  0  0  0  0  0  0  0  0  0
   18.9109   -1.3706    0.0000 N   0  0  0  0  0  0  0  0  0  0  0  0
   19.6254   -1.7831    0.0000 C   0  0  0  0  0  0  0  0  0  0  0  0
   20.3399   -1.3706    0.0000 C   0  0  0  0  0  0  0  0  0  0  0  0
   20.3399   -0.5456    0.0000 C   0  0  0  0  0  0  0  0  0  0  0  0
   18.0859   -0.5456    0.0000 C   0  0  1  0  0  0  0  0  0  0  0  0
   18.0859   -1.3706    0.0000 C   0  0  0  0  0  0  0  0  0  0  0  0
   17.3715   -0.1331    0.0000 N   0  0  0  0  0  0  0  0  0  0  0  0
   18.9109    0.2794    0.0000 H   0  0  0  0  0  0  0  0  0  0  0  0
   17.5026   -1.9540    0.0000 O   0  0  0  0  0  0  0  0  0  0  0  0
   21.0544   -1.7831    0.0000 C   0  0  0  0  0  0  0  0  0  0  0  0
   17.3715    0.8514    0.0000 H   0  0  0  0  0  0  0  0  0  0  0  0
  1  2  1  0  0  0  0
  1  6  1  0  0  0  0
  2  3  1  0  0  0  0
  2 10  1  6  0  0  0
  3  4  1  0  0  0  0
  4  5  2  0  0  0  0
  5  6  1  0  0  0  0
  5 12  1  0  0  0  0
  7  2  1  1  0  0  0
  7  8  1  0  0  0  0
  7  9  1  0  0  0  0
  8  3  1  0  0  0  0
  8 11  2  0  0  0  0
  9 13  1  0  0  0  0
M  END
$$$$
C=N
 OpenBabel07182308452D

  2  1  0  0  0  0  0  0  0  0999 V2000
   15.9425   -0.1331    0.0000 C   0  0  0  0  0  0  0  0  0  0  0  0
   15.9425    0.6919    0.0000 N   0  0  0  0  0  0  0  0  0  0  0  0
  1  2  2  0  0  0  0
M  END
$$$$
Cn1nnnc1S
 OpenBabel07182308452D

  7  7  0  0  0  0  0  0  0  0999 V2000
   21.7689   -1.3706    0.0000 S   0  0  0  0  0  0  0  0  0  0  0  0
   23.2680   -1.5282    0.0000 N   0  0  0  0  0  0  0  0  0  0  0  0
   22.4833   -1.7831    0.0000 C   0  0  0  0  0  0  0  0  0  0  0  0
   22.4833   -2.6081    0.0000 N   0  0  0  0  0  0  0  0  0  0  0  0
   23.2680   -2.8630    0.0000 N   0  0  0  0  0  0  0  0  0  0  0  0
   23.7529   -2.1956    0.0000 N   0  0  0  0  0  0  0  0  0  0  0  0
   23.4815   -0.7313    0.0000 C   0  0  0  0  0  0  0  0  0  0  0  0
  1  3  1  0  0  0  0
  2  3  1  0  0  0  0
  2  6  1  0  0  0  0
  2  7  1  0  0  0  0
  3  4  2  0  0  0  0
  4  5  1  0  0  0  0
  5  6  2  0  0  0  0
M  END
$$$$
O=C1Nc2c(C1)c(C)ccc2
 OpenBabel07182308452D

 12 13  0  0  0  0  0  0  0  0999 V2000
    6.5951   -1.6938    0.0000 O   0  0  0  0  0  0  0  0  0  0  0  0
    5.2886   -2.3577    0.0000 N   0  0  0  0  0  0  0  0  0  0  0  0
    3.7935   -0.0437    0.0000 C   0  0  0  0  0  0  0  0  0  0  0  0
    3.7935   -0.8687    0.0000 C   0  0  0  0  0  0  0  0  0  0  0  0
    4.5080   -1.2813    0.0000 C   0  0  0  0  0  0  0  0  0  0  0  0
    5.2886   -1.0298    0.0000 C   0  0  0  0  0  0  0  0  0  0  0  0
    4.5080   -2.1063    0.0000 C   0  0  0  0  0  0  0  0  0  0  0  0
    3.0791   -1.2813    0.0000 C   0  0  0  0  0  0  0  0  0  0  0  0
    5.7701   -1.6938    0.0000 C   0  0  0  0  0  0  0  0  0  0  0  0
    3.7935   -2.5188    0.0000 C   0  0  0  0  0  0  0  0  0  0  0  0
    3.0791   -2.1063    0.0000 C   0  0  0  0  0  0  0  0  0  0  0  0
    5.5944   -3.2935    0.0000 H   0  0  0  0  0  0  0  0  0  0  0  0
  1  9  2  0  0  0  0
  2  7  1  0  0  0  0
  2  9  1  0  0  0  0
  2 12  1  0  0  0  0
  3  4  1  0  0  0  0
  4  5  2  0  0  0  0
  4  8  1  0  0  0  0
  5  6  1  0  0  0  0
  5  7  1  0  0  0  0
  6  9  1  0  0  0  0
  7 10  2  0  0  0  0
  8 11  2  0  0  0  0
 10 11  1  0  0  0  0
M  END
$$$$
c1ccc2c(c1)non2
 OpenBabel07182308452D

  9 10  0  0  1  0  0  0  0  0999 V2000
    7.1991   -1.4933    0.0000 O   0  0  0  0  0  0  0  0  0  0  0  0
    6.7176   -0.8294    0.0000 N   0  0  0  0  0  0  0  0  0  0  0  0
    6.7176   -2.1572    0.0000 N   0  0  0  0  0  0  0  0  0  0  0  0
    5.2224   -0.6683    0.0000 C   0  0  0  0  0  0  0  0  0  0  0  0
    5.9370   -1.0808    0.0000 C   0  0  0  0  0  0  0  0  0  0  0  0
    4.5080   -1.0808    0.0000 C   0  0  0  0  0  0  0  0  0  0  0  0
    5.9370   -1.9058    0.0000 C   0  0  0  0  0  0  0  0  0  0  0  0
    4.5080   -1.9058    0.0000 C   0  0  0  0  0  0  0  0  0  0  0  0
    5.2224   -2.3183    0.0000 C   0  0  0  0  0  0  0  0  0  0  0  0
  1  2  1  0  0  0  0
  1  3  1  0  0  0  0
  2  5  2  0  0  0  0
  3  7  2  0  0  0  0
  4  5  1  0  0  0  0
  4  6  2  0  0  0  0
  5  7  1  0  0  0  0
  6  8  1  0  0  0  0
  7  9  1  0  0  0  0
  8  9  2  0  0  0  0
M  END
$$$$
CC1=C(CC=C(N1)C)C=O
 OpenBabel07182308452D

 11 11  0  0  1  0  0  0  0  0999 V2000
    7.3660   -0.2557    0.0000 O   0  0  0  0  0  0  0  0  0  0  0  0
    5.2224    1.8068    0.0000 N   0  0  0  0  0  0  0  0  0  0  0  0
    5.2224    0.1568    0.0000 C   0  0  0  0  0  0  0  0  0  0  0  0
    4.5080    0.5693    0.0000 C   0  0  0  0  0  0  0  0  0  0  0  0
    5.9370    0.5693    0.0000 C   0  0  0  0  0  0  0  0  0  0  0  0
    4.5080    1.3943    0.0000 C   0  0  0  0  0  0  0  0  0  0  0  0
    5.9370    1.3943    0.0000 C   0  0  0  0  0  0  0  0  0  0  0  0
    3.7935    1.8068    0.0000 C   0  0  0  0  0  0  0  0  0  0  0  0
    6.6515    0.1568    0.0000 C   0  0  0  0  0  0  0  0  0  0  0  0
    6.6515    1.8068    0.0000 C   0  0  0  0  0  0  0  0  0  0  0  0
    5.2223    2.7913    0.0000 H   0  0  0  0  0  0  0  0  0  0  0  0
  1  9  2  0  0  0  0
  2  6  1  0  0  0  0
  2  7  1  0  0  0  0
  2 11  1  0  0  0  0
  3  4  1  0  0  0  0
  3  5  1  0  0  0  0
  4  6  2  0  0  0  0
  5  7  2  0  0  0  0
  5  9  1  0  0  0  0
  6  8  1  0  0  0  0
  7 10  1  0  0  0  0
M  END
$$$$
Ic1cc(I)c(c(c1N)I)N
 OpenBabel07182308452D

 13 13  0  0  0  0  0  0  0  0999 V2000
   -0.3602    1.0276    0.0000 C   0  0  0  0  0  0  0  0  0  0  0  0
    0.3543    1.4398    0.0000 C   0  0  0  0  0  0  0  0  0  0  0  0
   -0.3602    0.2021    0.0000 C   0  0  0  0  0  0  0  0  0  0  0  0
   -1.0749    1.4408    0.0000 N   0  0  0  0  0  0  0  0  0  0  0  0
    1.0688    1.0265    0.0000 C   0  0  0  0  0  0  0  0  0  0  0  0
    0.3555    2.2700    0.0000 I   0  0  0  0  0  0  0  0  0  0  0  0
    0.3513   -0.2127    0.0000 C   0  0  0  0  0  0  0  0  0  0  0  0
   -1.0766   -0.2070    0.0000 I   0  0  0  0  0  0  0  0  0  0  0  0
    1.0659    0.1994    0.0000 C   0  0  0  0  0  0  0  0  0  0  0  0
    0.3572   -1.0348    0.0000 N   0  0  0  0  0  0  0  0  0  0  0  0
    1.7894   -0.2086    0.0000 I   0  0  0  0  0  0  0  0  0  0  0  0
   -1.0705    2.4253    0.0000 H   0  0  0  0  0  0  0  0  0  0  0  0
   -0.4933   -1.5307    0.0000 H   0  0  0  0  0  0  0  0  0  0  0  0
  1  2  1  0  0  0  0
  1  3  2  0  0  0  0
  1  4  1  0  0  0  0
  2  5  2  0  0  0  0
  2  6  1  0  0  0  0
  3  7  1  0  0  0  0
  3  8  1  0  0  0  0
  4 12  1  0  0  0  0
  5  9  1  0  0  0  0
  7 10  1  0  0  0  0
  7  9  2  0  0  0  0
  9 11  1  0  0  0  0
 10 13  1  0  0  0  0
M  END
$$$$
Cc1ccn[nH]1
 OpenBabel07182308452D

  7  7  0  0  0  0  0  0  0  0999 V2000
    2.3174   -0.3790    0.0000 N   0  0  0  0  0  0  0  0  0  0  0  0
    1.6500    0.1059    0.0000 N   0  0  0  0  0  0  0  0  0  0  0  0
    3.7695   -0.1491    0.0000 C   0  0  0  0  0  0  0  0  0  0  0  0
    2.9849    0.1059    0.0000 C   0  0  0  0  0  0  0  0  0  0  0  0
    2.7299    0.8905    0.0000 C   0  0  0  0  0  0  0  0  0  0  0  0
    1.9049    0.8905    0.0000 C   0  0  0  0  0  0  0  0  0  0  0  0
    2.3174   -1.3635    0.0000 H   0  0  0  0  0  0  0  0  0  0  0  0
  1  2  1  0  0  0  0
  1  4  1  0  0  0  0
  1  7  1  0  0  0  0
  2  6  2  0  0  0  0
  3  4  1  0  0  0  0
  4  5  2  0  0  0  0
  5  6  1  0  0  0  0
M  END
$$$$
NS(=O)(=O)O
 OpenBabel07182308452D

  7  6  0  0  1  0  0  0  0  0999 V2000
    7.1521    0.8041    0.0000 S   0  0  0  0  0  0  0  0  0  0  0  0
    6.4376    0.3916    0.0000 O   0  0  0  0  0  0  0  0  0  0  0  0
    7.5646    0.0897    0.0000 O   0  0  0  0  0  0  0  0  0  0  0  0
    6.7396    1.5186    0.0000 O   0  0  0  0  0  0  0  0  0  0  0  0
    7.8666    1.2167    0.0000 N   0  0  0  0  0  0  0  0  0  0  0  0
    8.7500    0.7068    0.0000 H   0  0  0  0  0  0  0  0  0  0  0  0
    7.8665    2.2367    0.0000 H   0  0  0  0  0  0  0  0  0  0  0  0
  1  2  1  0  0  0  0
  1  3  2  0  0  0  0
  1  4  2  0  0  0  0
  1  5  1  0  0  0  0
  5  6  1  0  0  0  0
  5  7  1  0  0  0  0
M  END
$$$$
CC1(C)O[C@H]2[C@@H](O1)[C@@H]1OC(O[C@@]1(OC2)C)(C)C
 OpenBabel07182308452D

 20 22  0  0  1  0  0  0  0  0999 V2000
    4.4667   -0.8226    0.0000 O   0  0  0  0  0  0  0  0  0  0  0  0
    5.0086    1.2167    0.0000 O   0  0  0  0  0  0  0  0  0  0  0  0
    5.6167   -0.1587    0.0000 O   0  0  0  0  0  0  0  0  0  0  0  0
    2.7990    0.1403    0.0000 O   0  0  0  0  0  0  0  0  0  0  0  0
    2.7990    1.4680    0.0000 O   0  0  0  0  0  0  0  0  0  0  0  0
    4.2941   -0.0209    0.0000 C   0  0  1  0  0  0  0  0  0  0  0  0
    3.5796    0.3916    0.0000 C   0  0  1  0  0  0  0  0  0  0  0  0
    5.0086    0.3916    0.0000 C   0  0  1  0  0  0  0  0  0  0  0  0
    3.5796    1.2167    0.0000 C   0  0  1  0  0  0  0  0  0  0  0  0
    4.2941    1.6292    0.0000 C   0  0  0  0  0  0  0  0  0  0  0  0
    5.2824   -0.9077    0.0000 C   0  0  0  0  0  0  0  0  0  0  0  0
    2.3175    0.8041    0.0000 C   0  0  0  0  0  0  0  0  0  0  0  0
    5.7231    0.8041    0.0000 C   0  0  0  0  0  0  0  0  0  0  0  0
    6.0361   -1.2432    0.0000 C   0  0  0  0  0  0  0  0  0  0  0  0
    5.1962   -1.7282    0.0000 C   0  0  0  0  0  0  0  0  0  0  0  0
    1.6500    0.3192    0.0000 C   0  0  0  0  0  0  0  0  0  0  0  0
    1.6500    1.2891    0.0000 C   0  0  0  0  0  0  0  0  0  0  0  0
    3.7607   -0.4095    0.0000 H   0  0  0  0  0  0  0  0  0  0  0  0
    3.5098   -0.2647    0.0000 H   0  0  0  0  0  0  0  0  0  0  0  0
    3.5098    1.8730    0.0000 H   0  0  0  0  0  0  0  0  0  0  0  0
  1  6  1  0  0  0  0
  1 11  1  0  0  0  0
  2  8  1  0  0  0  0
  2 10  1  0  0  0  0
  3  8  1  0  0  0  0
  3 11  1  0  0  0  0
  4  7  1  0  0  0  0
  4 12  1  0  0  0  0
  5  9  1  0  0  0  0
  5 12  1  0  0  0  0
  6  7  1  1  0  0  0
  6 18  1  0  0  0  0
  7  9  1  1  0  0  0
  7 19  1  0  0  0  0
  8  6  1  6  0  0  0
  8 13  1  0  0  0  0
  9 10  1  0  0  0  0
  9 20  1  1  0  0  0
 11 14  1  0  0  0  0
 11 15  1  0  0  0  0
 12 16  1  0  0  0  0
 12 17  1  0  0  0  0
M  END
$$$$
CC#N
 OpenBabel07182308452D

  3  2  0  0  1  0  0  0  0  0999 V2000
   11.4792   -2.9282    0.0000 N   0  0  0  0  0  0  0  0  0  0  0  0
   10.6571   -1.4976    0.0000 C   0  0  0  0  0  0  0  0  0  0  0  0
   11.0681   -2.2128    0.0000 C   0  0  0  0  0  0  0  0  0  0  0  0
  1  3  3  0  0  0  0
  2  3  1  0  0  0  0
M  END
$$$$
c1nnn[nH]1
 OpenBabel07182308452D

  6  6  0  0  0  0  0  0  0  0999 V2000
   -0.7145   -0.4125    0.0000 C   0  0  0  0  0  0  0  0  0  0  0  0
   -0.7145    0.4125    0.0000 N   0  0  0  0  0  0  0  0  0  0  0  0
   -1.4991    0.6674    0.0000 N   0  0  0  0  0  0  0  0  0  0  0  0
   -1.9840    0.0000    0.0000 N   0  0  0  0  0  0  0  0  0  0  0  0
   -1.4991   -0.6674    0.0000 N   0  0  0  0  0  0  0  0  0  0  0  0
    0.0820    0.9912    0.0000 H   0  0  0  0  0  0  0  0  0  0  0  0
  1  5  2  0  0  0  0
  1  2  1  0  0  0  0
  2  3  1  0  0  0  0
  2  6  1  0  0  0  0
  3  4  2  0  0  0  0
  4  5  1  0  0  0  0
M  END
$$$$
Cc1ncc[nH]1
 OpenBabel07182308452D

  6  6  0  0  0  0  0  0  0  0999 V2000
    2.2136    3.0451    0.0000 C   0  0  0  0  0  0  0  0  0  0  0  0
    2.6985    3.7125    0.0000 N   0  0  0  0  0  0  0  0  0  0  0  0
    1.4289    3.3000    0.0000 N   0  0  0  0  0  0  0  0  0  0  0  0
    2.4685    2.2604    0.0000 C   0  0  0  0  0  0  0  0  0  0  0  0
    1.4289    4.1250    0.0000 C   0  0  0  0  0  0  0  0  0  0  0  0
    2.2136    4.3799    0.0000 C   0  0  0  0  0  0  0  0  0  0  0  0
  1  2  2  0  0  0  0
  1  3  1  0  0  0  0
  1  4  1  0  0  0  0
  2  6  1  0  0  0  0
  5  3  1  0  0  0  0
  6  5  2  0  0  0  0
M  END
$$$$
Nc1c2ccccc2nc2c1cccc2
 OpenBabel07182308452D

 16 18  0  0  0  0  0  0  0  0999 V2000
    3.8495   -0.3982    0.0000 N   0  0  0  0  0  0  0  0  0  0  0  0
    3.8495   -2.8732    0.0000 N   0  0  0  0  0  0  0  0  0  0  0  0
    3.8495   -1.2232    0.0000 C   0  0  0  0  0  0  0  0  0  0  0  0
    3.1350   -1.6357    0.0000 C   0  0  0  0  0  0  0  0  0  0  0  0
    4.5640   -1.6357    0.0000 C   0  0  0  0  0  0  0  0  0  0  0  0
    3.1350   -2.4607    0.0000 C   0  0  0  0  0  0  0  0  0  0  0  0
    4.5640   -2.4607    0.0000 C   0  0  0  0  0  0  0  0  0  0  0  0
    2.3975   -1.1946    0.0000 C   0  0  0  0  0  0  0  0  0  0  0  0
    5.3015   -1.1946    0.0000 C   0  0  0  0  0  0  0  0  0  0  0  0
    2.3975   -2.9018    0.0000 C   0  0  0  0  0  0  0  0  0  0  0  0
    5.3015   -2.9018    0.0000 C   0  0  0  0  0  0  0  0  0  0  0  0
    1.6500   -1.6186    0.0000 C   0  0  0  0  0  0  0  0  0  0  0  0
    6.0490   -1.6186    0.0000 C   0  0  0  0  0  0  0  0  0  0  0  0
    1.6500   -2.4779    0.0000 C   0  0  0  0  0  0  0  0  0  0  0  0
    6.0490   -2.4779    0.0000 C   0  0  0  0  0  0  0  0  0  0  0  0
    2.9969    0.0941    0.0000 H   0  0  0  0  0  0  0  0  0  0  0  0
  1  3  1  0  0  0  0
  1 16  1  0  0  0  0
  2  6  2  0  0  0  0
  2  7  1  0  0  0  0
  3  4  2  0  0  0  0
  3  5  1  0  0  0  0
  4  6  1  0  0  0  0
  4  8  1  0  0  0  0
  5  7  1  0  0  0  0
  5  9  2  0  0  0  0
  6 10  1  0  0  0  0
  7 11  2  0  0  0  0
  8 12  2  0  0  0  0
  9 13  1  0  0  0  0
 10 14  2  0  0  0  0
 11 15  1  0  0  0  0
 12 14  1  0  0  0  0
 13 15  2  0  0  0  0
M  END
$$$$
Cn1c(=O)n(C)c2c(c1=O)[nH]cn2
 OpenBabel07182308452D

 14 15  0  0  0  0  0  0  0  0999 V2000
    0.7145   -1.2375    0.0000 C   0  0  0  0  0  0  0  0  0  0  0  0
    0.7145   -0.4125    0.0000 N   0  0  0  0  0  0  0  0  0  0  0  0
   -0.0000   -0.0000    0.0000 C   0  0  0  0  0  0  0  0  0  0  0  0
   -0.0000    0.8250    0.0000 C   0  0  0  0  0  0  0  0  0  0  0  0
    0.7145    1.2375    0.0000 C   0  0  0  0  0  0  0  0  0  0  0  0
    0.7145    2.0625    0.0000 O   0  0  0  0  0  0  0  0  0  0  0  0
    1.4289    0.8250    0.0000 N   0  0  0  0  0  0  0  0  0  0  0  0
    1.4289    0.0000    0.0000 C   0  0  0  0  0  0  0  0  0  0  0  0
    2.1434   -0.4125    0.0000 O   0  0  0  0  0  0  0  0  0  0  0  0
    2.1434    1.2375    0.0000 C   0  0  0  0  0  0  0  0  0  0  0  0
   -0.7846    1.0799    0.0000 N   0  0  0  0  0  0  0  0  0  0  0  0
   -1.2695    0.4125    0.0000 C   0  0  0  0  0  0  0  0  0  0  0  0
   -0.7846   -0.2549    0.0000 N   0  0  0  0  0  0  0  0  0  0  0  0
   -1.0888    2.0162    0.0000 H   0  0  0  0  0  0  0  0  0  0  0  0
  1  2  1  0  0  0  0
  2  3  1  0  0  0  0
  2  8  1  0  0  0  0
  3  4  2  0  0  0  0
  3 13  1  0  0  0  0
  4  5  1  0  0  0  0
  4 11  1  0  0  0  0
  5  6  2  0  0  0  0
  5  7  1  0  0  0  0
  7  8  1  0  0  0  0
  7 10  1  0  0  0  0
  8  9  2  0  0  0  0
 11 12  1  0  0  0  0
 11 14  1  0  0  0  0
 12 13  2  0  0  0  0
M  END
$$$$
CC1CCNCC1
 OpenBabel07182308452D

  7  7  0  0  0  0  0  0  0  0999 V2000
    1.7892    1.0289    0.0000 N   0  0  0  0  0  0  0  0  0  0  0  0
    1.7846    0.2056    0.0000 C   0  0  0  0  0  0  0  0  0  0  0  0
    2.4962   -0.2038    0.0000 C   0  0  0  0  0  0  0  0  0  0  0  0
    3.2133    0.2041    0.0000 C   0  0  0  0  0  0  0  0  0  0  0  0
    3.2142    1.0303    0.0000 C   0  0  0  0  0  0  0  0  0  0  0  0
    2.4979    1.4485    0.0000 C   0  0  0  0  0  0  0  0  0  0  0  0
    3.9276   -0.2082    0.0000 C   0  0  0  0  0  0  0  0  0  0  0  0
  1  2  1  0  0  0  0
  1  6  1  0  0  0  0
  2  3  1  0  0  0  0
  3  4  1  0  0  0  0
  4  5  1  0  0  0  0
  4  7  1  0  0  0  0
  5  6  1  0  0  0  0
M  END
$$$$
CC1CNc2c(C1)cccc2
 OpenBabel07182308452D

 12 13  0  0  0  0  0  0  0  0999 V2000
   -0.3494   -1.0392    0.0000 C   0  0  0  0  0  0  0  0  0  0  0  0
   -1.0654   -1.4522    0.0000 C   0  0  0  0  0  0  0  0  0  0  0  0
   -1.0647   -2.2766    0.0000 C   0  0  0  0  0  0  0  0  0  0  0  0
   -0.3484   -2.6869    0.0000 C   0  0  0  0  0  0  0  0  0  0  0  0
    0.3603   -1.4479    0.0000 C   0  0  0  0  0  0  0  0  0  0  0  0
    0.3633   -2.2694    0.0000 C   0  0  0  0  0  0  0  0  0  0  0  0
    1.0731   -2.6732    0.0000 C   0  0  0  0  0  0  0  0  0  0  0  0
    1.7841   -2.2640    0.0000 C   0  0  3  0  0  0  0  0  0  0  0  0
    1.7809   -1.4424    0.0000 C   0  0  0  0  0  0  0  0  0  0  0  0
    2.5003   -2.6728    0.0000 C   0  0  0  0  0  0  0  0  0  0  0  0
    1.0689   -1.0255    0.0000 N   0  0  0  0  0  0  0  0  0  0  0  0
    1.0650   -0.0410    0.0000 H   0  0  0  0  0  0  0  0  0  0  0  0
  1  2  2  0  0  0  0
  2  3  1  0  0  0  0
  3  4  2  0  0  0  0
  4  6  1  0  0  0  0
  5  1  1  0  0  0  0
  5  6  2  0  0  0  0
  5 11  1  0  0  0  0
  6  7  1  0  0  0  0
  7  8  1  0  0  0  0
  8  9  1  0  0  0  0
  8 10  1  0  0  0  0
  9 11  1  0  0  0  0
 11 12  1  0  0  0  0
M  END
$$$$
Ic1cccc(c1O)I
 OpenBabel07182308452D

  9  9  0  0  1  0  0  0  0  0999 V2000
    4.9509    0.8250    0.0000 I   0  0  0  0  0  0  0  0  0  0  0  0
    2.0930    0.8250    0.0000 I   0  0  0  0  0  0  0  0  0  0  0  0
    3.5220    1.6500    0.0000 O   0  0  0  0  0  0  0  0  0  0  0  0
    3.5220   -0.8250    0.0000 C   0  0  0  0  0  0  0  0  0  0  0  0
    2.8075   -0.4125    0.0000 C   0  0  0  0  0  0  0  0  0  0  0  0
    4.2365   -0.4125    0.0000 C   0  0  0  0  0  0  0  0  0  0  0  0
    3.5220    0.8250    0.0000 C   0  0  0  0  0  0  0  0  0  0  0  0
    4.2365    0.4125    0.0000 C   0  0  0  0  0  0  0  0  0  0  0  0
    2.8075    0.4125    0.0000 C   0  0  0  0  0  0  0  0  0  0  0  0
  1  8  1  0  0  0  0
  2  9  1  0  0  0  0
  3  7  1  0  0  0  0
  4  5  2  0  0  0  0
  4  6  1  0  0  0  0
  5  9  1  0  0  0  0
  6  8  2  0  0  0  0
  7  8  1  0  0  0  0
  7  9  2  0  0  0  0
M  END
$$$$
Oc1ccccc1I
 OpenBabel07182308452D

  9  9  0  0  1  0  0  0  0  0999 V2000
    6.3799    1.6500    0.0000 I   0  0  0  0  0  0  0  0  0  0  0  0
    6.3799    3.3001    0.0000 O   0  0  0  0  0  0  0  0  0  0  0  0
    4.2365    2.0625    0.0000 C   0  0  0  0  0  0  0  0  0  0  0  0
    4.9509    1.6500    0.0000 C   0  0  0  0  0  0  0  0  0  0  0  0
    4.2365    2.8876    0.0000 C   0  0  0  0  0  0  0  0  0  0  0  0
    5.6655    2.0625    0.0000 C   0  0  0  0  0  0  0  0  0  0  0  0
    4.9509    3.3001    0.0000 C   0  0  0  0  0  0  0  0  0  0  0  0
    5.6655    2.8876    0.0000 C   0  0  0  0  0  0  0  0  0  0  0  0
    7.1914    2.8316    0.0000 H   0  0  0  0  0  0  0  0  0  0  0  0
  1  6  1  0  0  0  0
  2  8  1  0  0  0  0
  2  9  1  0  0  0  0
  3  4  2  0  0  0  0
  3  5  1  0  0  0  0
  4  6  1  0  0  0  0
  5  7  2  0  0  0  0
  6  8  2  0  0  0  0
  7  8  1  0  0  0  0
M  END
$$$$
Cc1ccccn1
 OpenBabel07182308452D

  7  7  0  0  0  0  0  0  0  0999 V2000
   -3.4473    0.0884    0.0000 N   0  0  0  0  0  0  0  0  0  0  0  0
   -4.1618   -0.3241    0.0000 C   0  0  0  0  0  0  0  0  0  0  0  0
   -4.1618   -1.1491    0.0000 C   0  0  0  0  0  0  0  0  0  0  0  0
   -3.4473   -1.5616    0.0000 C   0  0  0  0  0  0  0  0  0  0  0  0
   -2.7329   -1.1491    0.0000 C   0  0  0  0  0  0  0  0  0  0  0  0
   -2.7329   -0.3241    0.0000 C   0  0  0  0  0  0  0  0  0  0  0  0
   -2.0184    0.0884    0.0000 C   0  0  0  0  0  0  0  0  0  0  0  0
  1  2  1  0  0  0  0
  1  6  2  0  0  0  0
  2  3  2  0  0  0  0
  3  4  1  0  0  0  0
  4  5  2  0  0  0  0
  5  6  1  0  0  0  0
  6  7  1  0  0  0  0
M  END
$$$$
Cc1cccc(c1N)C
 OpenBabel07182308452D

 10 10  0  0  0  0  0  0  0  0999 V2000
   -2.1433    1.2375    0.0000 C   0  0  0  0  0  0  0  0  0  0  0  0
   -2.8579    0.8250    0.0000 C   0  0  0  0  0  0  0  0  0  0  0  0
   -2.8579    0.0000    0.0000 C   0  0  0  0  0  0  0  0  0  0  0  0
   -1.4288    0.8250    0.0000 C   0  0  0  0  0  0  0  0  0  0  0  0
   -0.7144    1.2375    0.0000 C   0  0  0  0  0  0  0  0  0  0  0  0
   -2.1433   -0.4125    0.0000 C   0  0  0  0  0  0  0  0  0  0  0  0
   -2.1433   -1.2375    0.0000 C   0  0  0  0  0  0  0  0  0  0  0  0
   -1.4288    0.0000    0.0000 C   0  0  0  0  0  0  0  0  0  0  0  0
   -0.7144   -0.4125    0.0000 N   0  0  0  0  0  0  0  0  0  0  0  0
   -0.7144   -1.3970    0.0000 H   0  0  0  0  0  0  0  0  0  0  0  0
  1  2  1  0  0  0  0
  1  4  2  0  0  0  0
  2  3  2  0  0  0  0
  3  6  1  0  0  0  0
  4  5  1  0  0  0  0
  6  8  2  0  0  0  0
  6  7  1  0  0  0  0
  8  4  1  0  0  0  0
  8  9  1  0  0  0  0
  9 10  1  0  0  0  0
M  END
$$$$
CN1CCC[C@@H]1C
 OpenBabel07182308452D

  7  7  0  0  1  0  0  0  0  0999 V2000
    5.7706    1.7979    0.0000 N   0  0  0  0  0  0  0  0  0  0  0  0
    4.9501    1.7117    0.0000 C   0  0  2  0  0  0  0  0  0  0  0  0
    4.6146    2.4653    0.0000 C   0  0  0  0  0  0  0  0  0  0  0  0
    5.2276    3.0174    0.0000 C   0  0  0  0  0  0  0  0  0  0  0  0
    5.9421    2.6049    0.0000 C   0  0  0  0  0  0  0  0  0  0  0  0
    4.5376    0.9972    0.0000 C   0  0  0  0  0  0  0  0  0  0  0  0
    6.3226    1.1848    0.0000 C   0  0  0  0  0  0  0  0  0  0  0  0
  1  2  1  0  0  0  0
  1  5  1  0  0  0  0
  1  7  1  0  0  0  0
  2  3  1  0  0  0  0
  2  6  1  1  0  0  0
  3  4  1  0  0  0  0
  4  5  1  0  0  0  0
M  END
$$$$
COCC
 OpenBabel07182308452D

  4  3  0  0  1  0  0  0  0  0999 V2000
    3.3001    0.2827    0.0000 O   0  0  0  0  0  0  0  0  0  0  0  0
    3.7126    0.9972    0.0000 C   0  0  0  0  0  0  0  0  0  0  0  0
    2.4751    0.2827    0.0000 C   0  0  0  0  0  0  0  0  0  0  0  0
    1.6500    0.2827    0.0000 C   0  0  0  0  0  0  0  0  0  0  0  0
  1  2  1  0  0  0  0
  3  1  1  0  0  0  0
  3  4  1  0  0  0  0
M  END
$$$$
N[C@H]1C=C[C@H]([C@@H]([C@H]1O)O)O
 OpenBabel07182308452D

 15 15  0  0  0  0  0  0  0  0999 V2000
   -3.2150    0.9909    0.0000 N   0  0  0  0  0  0  0  0  0  0  0  0
   -3.9295    0.5784    0.0000 C   0  0  1  0  0  0  0  0  0  0  0  0
   -3.9295   -0.2465    0.0000 C   0  0  0  0  0  0  0  0  0  0  0  0
   -4.6440   -0.6590    0.0000 C   0  0  0  0  0  0  0  0  0  0  0  0
   -5.3585   -0.2465    0.0000 C   0  0  2  0  0  0  0  0  0  0  0  0
   -5.3585    0.5784    0.0000 C   0  0  1  0  0  0  0  0  0  0  0  0
   -4.6440    0.9909    0.0000 C   0  0  1  0  0  0  0  0  0  0  0  0
   -4.6518    1.8966    0.0000 O   0  0  0  0  0  0  0  0  0  0  0  0
   -6.0729    0.9909    0.0000 O   0  0  0  0  0  0  0  0  0  0  0  0
   -6.0729   -0.6590    0.0000 O   0  0  0  0  0  0  0  0  0  0  0  0
   -3.2150    0.1659    0.0000 H   0  0  0  0  0  0  0  0  0  0  0  0
   -3.2150    2.0109    0.0000 H   0  0  0  0  0  0  0  0  0  0  0  0
   -3.8160    2.3888    0.0000 H   0  0  0  0  0  0  0  0  0  0  0  0
   -6.0729    1.9609    0.0000 H   0  0  0  0  0  0  0  0  0  0  0  0
   -6.9130   -0.1740    0.0000 H   0  0  0  0  0  0  0  0  0  0  0  0
  1 12  1  0  0  0  0
  2  1  1  0  0  0  0
  2 11  1  6  0  0  0
  3  2  1  0  0  0  0
  4  3  2  0  0  0  0
  5  4  1  0  0  0  0
  5 10  1  1  0  0  0
  6  5  1  0  0  0  0
  6  9  1  6  0  0  0
  7  6  1  0  0  0  0
  7  2  1  1  0  0  0
  7  8  1  0  0  0  0
  8 13  1  0  0  0  0
  9 14  1  0  0  0  0
 10 15  1  0  0  0  0
M  END
$$$$
C[C@@H]1C[C@H](O)[C@H]([C@H](O1)O)O
 OpenBabel07182308452D

 12 12  0  0  0  0  0  0  0  0999 V2000
   -2.5006    0.5784    0.0000 C   0  0  0  0  0  0  0  0  0  0  0  0
   -2.5006   -0.2465    0.0000 C   0  0  1  0  0  0  0  0  0  0  0  0
   -1.7861   -0.6590    0.0000 C   0  0  2  0  0  0  0  0  0  0  0  0
   -1.0716   -0.2465    0.0000 C   0  0  2  0  0  0  0  0  0  0  0  0
   -1.0716    0.5784    0.0000 O   0  0  0  0  0  0  0  0  0  0  0  0
   -1.7861    0.9909    0.0000 C   0  0  2  0  0  0  0  0  0  0  0  0
   -1.7485    1.7219    0.0000 C   0  0  0  0  0  0  0  0  0  0  0  0
   -0.3572   -0.6590    0.0000 O   0  0  0  0  0  0  0  0  0  0  0  0
   -1.7861   -1.5669    0.0000 O   0  0  0  0  0  0  0  0  0  0  0  0
   -3.2150   -0.6590    0.0000 O   0  0  0  0  0  0  0  0  0  0  0  0
   -2.6261   -2.0519    0.0000 H   0  0  0  0  0  0  0  0  0  0  0  0
   -4.0551   -0.1740    0.0000 H   0  0  0  0  0  0  0  0  0  0  0  0
  1  6  1  0  0  0  0
  2  1  1  0  0  0  0
  2 10  1  1  0  0  0
  3  2  1  0  0  0  0
  3  9  1  6  0  0  0
  4  3  1  0  0  0  0
  4  8  1  6  0  0  0
  5  4  1  0  0  0  0
  6  5  1  0  0  0  0
  6  7  1  1  0  0  0
  9 11  1  0  0  0  0
 10 12  1  0  0  0  0
M  END
$$$$
O[C@@H]1[C@@H](O)CCO[C@@H]1O
 OpenBabel07182308452D

 13 13  0  0  0  0  0  0  0  0999 V2000
    0.3572   -0.2465    0.0000 C   0  0  0  0  0  0  0  0  0  0  0  0
    0.3572    0.5784    0.0000 C   0  0  1  0  0  0  0  0  0  0  0  0
    1.0717    0.9909    0.0000 C   0  0  2  0  0  0  0  0  0  0  0  0
    1.7862    0.5784    0.0000 C   0  0  2  0  0  0  0  0  0  0  0  0
    1.7862   -0.2465    0.0000 O   0  0  0  0  0  0  0  0  0  0  0  0
    1.0717   -0.6590    0.0000 C   0  0  0  0  0  0  0  0  0  0  0  0
    2.5005    0.9909    0.0000 O   0  0  0  0  0  0  0  0  0  0  0  0
    1.7862    1.4034    0.0000 H   0  0  0  0  0  0  0  0  0  0  0  0
    1.0717    1.8159    0.0000 O   0  0  0  0  0  0  0  0  0  0  0  0
   -0.3572    0.9909    0.0000 O   0  0  0  0  0  0  0  0  0  0  0  0
    0.3572   -1.0716    0.0000 H   0  0  0  0  0  0  0  0  0  0  0  0
    1.9117    2.3009    0.0000 H   0  0  0  0  0  0  0  0  0  0  0  0
   -0.3572    1.9609    0.0000 H   0  0  0  0  0  0  0  0  0  0  0  0
  1  6  1  0  0  0  0
  1 11  1  0  0  0  0
  2  1  1  0  0  0  0
  2 10  1  6  0  0  0
  3  2  1  0  0  0  0
  3  4  1  1  0  0  0
  3  9  1  0  0  0  0
  4  7  1  0  0  0  0
  4  8  1  6  0  0  0
  5  4  1  0  0  0  0
  6  5  1  0  0  0  0
  9 12  1  0  0  0  0
 10 13  1  0  0  0  0
M  END
$$$$
CC1(O)CCCCC1
 OpenBabel07182308452D

  9  9  0  0  1  0  0  0  0  0999 V2000
    2.1615    0.1106    0.0000 O   0  0  0  0  0  0  0  0  0  0  0  0
    2.5741   -0.6040    0.0000 C   0  0  0  0  0  0  0  0  0  0  0  0
    2.9866    0.1106    0.0000 C   0  0  0  0  0  0  0  0  0  0  0  0
    1.8596   -1.0165    0.0000 C   0  0  0  0  0  0  0  0  0  0  0  0
    3.2885   -1.0165    0.0000 C   0  0  0  0  0  0  0  0  0  0  0  0
    1.8596   -1.8415    0.0000 C   0  0  0  0  0  0  0  0  0  0  0  0
    3.2885   -1.8415    0.0000 C   0  0  0  0  0  0  0  0  0  0  0  0
    2.5741   -2.2540    0.0000 C   0  0  0  0  0  0  0  0  0  0  0  0
    2.6465    0.9507    0.0000 H   0  0  0  0  0  0  0  0  0  0  0  0
  1  2  1  0  0  0  0
  1  9  1  0  0  0  0
  2  3  1  0  0  0  0
  2  4  1  0  0  0  0
  2  5  1  0  0  0  0
  4  6  1  0  0  0  0
  5  7  1  0  0  0  0
  6  8  1  0  0  0  0
  7  8  1  0  0  0  0
M  END
$$$$
O[C@@H]1C[C@@H]([C@@H](C1)C)O
 OpenBabel07182308452D

 10 10  0  0  1  0  0  0  0  0999 V2000
    7.0839   -4.0348    0.0000 O   0  0  0  0  0  0  0  0  0  0  0  0
    9.4334   -2.3278    0.0000 O   0  0  0  0  0  0  0  0  0  0  0  0
    7.3139   -2.5828    0.0000 C   0  0  2  0  0  0  0  0  0  0  0  0
    7.9813   -2.0979    0.0000 C   0  0  0  0  0  0  0  0  0  0  0  0
    7.5688   -3.3674    0.0000 C   0  0  2  0  0  0  0  0  0  0  0  0
    8.6488   -2.5828    0.0000 C   0  0  1  0  0  0  0  0  0  0  0  0
    8.3938   -3.3674    0.0000 C   0  0  0  0  0  0  0  0  0  0  0  0
    6.5293   -2.3278    0.0000 C   0  0  0  0  0  0  0  0  0  0  0  0
    6.1192   -3.9334    0.0000 H   0  0  0  0  0  0  0  0  0  0  0  0
   10.1543   -2.9768    0.0000 H   0  0  0  0  0  0  0  0  0  0  0  0
  1  9  1  0  0  0  0
  2 10  1  0  0  0  0
  3  4  1  0  0  0  0
  3  5  1  0  0  0  0
  3  8  1  6  0  0  0
  4  6  1  0  0  0  0
  5  1  1  6  0  0  0
  5  7  1  0  0  0  0
  6  2  1  6  0  0  0
  6  7  1  0  0  0  0
M  END
$$$$
O=C1C=C[C@]2(C(=C1)CC[C@@H]1[C@]2(F)[C@@H](O)C[C@]2([C@H]1C[C@@H]1[C@H]2OC2(O1)CCCC2)C)C
 OpenBabel07182308452D

 32 37  0  0  0  0  0  0  0  0999 V2000
    1.1311   -1.0011    0.0000 C   0  0  0  0  0  0  0  0  0  0  0  0
   -0.3679   -1.9837    0.0000 C   0  0  0  0  0  0  0  0  0  0  0  0
    1.1311    0.3337    0.0000 C   0  0  2  0  0  0  0  0  0  0  0  0
   -0.3679    0.4912    0.0000 C   0  0  0  0  0  0  0  0  0  0  0  0
    1.6160   -0.3337    0.0000 C   0  0  2  0  0  0  0  0  0  0  0  0
   -1.7969   -1.1587    0.0000 C   0  0  2  0  0  0  0  0  0  0  0  0
   -1.0824    0.0787    0.0000 C   0  0  1  0  0  0  0  0  0  0  0  0
   -1.0824   -2.3962    0.0000 C   0  0  0  0  0  0  0  0  0  0  0  0
   -1.7969   -1.9837    0.0000 C   0  0  0  0  0  0  0  0  0  0  0  0
   -2.5114   -0.7462    0.0000 C   0  0  0  0  0  0  0  0  0  0  0  0
   -2.5114   -2.3962    0.0000 C   0  0  0  0  0  0  0  0  0  0  0  0
   -3.2258   -1.1587    0.0000 C   0  0  0  0  0  0  0  0  0  0  0  0
   -0.3679   -1.1587    0.0000 C   0  0  2  0  0  0  0  0  0  0  0  0
   -0.3679   -0.3337    0.0000 H   0  0  0  0  0  0  0  0  0  0  0  0
   -1.0824   -0.7462    0.0000 C   0  0  1  0  0  0  0  0  0  0  0  0
   -1.0824   -1.5712    0.0000 F   0  0  0  0  0  0  0  0  0  0  0  0
    0.3464    0.0787    0.0000 C   0  0  2  0  0  0  0  0  0  0  0  0
    0.3464    0.9037    0.0000 C   0  0  0  0  0  0  0  0  0  0  0  0
    0.3464   -0.7462    0.0000 C   0  0  1  0  0  0  0  0  0  0  0  0
    0.3464   -1.5712    0.0000 H   0  0  0  0  0  0  0  0  0  0  0  0
   -3.9403   -2.3962    0.0000 O   0  0  0  0  0  0  0  0  0  0  0  0
   -3.2258   -1.9837    0.0000 C   0  0  0  0  0  0  0  0  0  0  0  0
   -1.7969   -0.3337    0.0000 C   0  0  0  0  0  0  0  0  0  0  0  0
    1.8456    0.7462    0.0000 O   0  0  0  0  0  0  0  0  0  0  0  0
   -1.7969    0.4912    0.0000 O   0  0  0  0  0  0  0  0  0  0  0  0
    2.4129   -0.1202    0.0000 O   0  0  0  0  0  0  0  0  0  0  0  0
    2.6425    0.5327    0.0000 C   0  0  0  0  0  0  0  0  0  0  0  0
    3.3569    0.1202    0.0000 C   0  0  0  0  0  0  0  0  0  0  0  0
    2.6425    1.3577    0.0000 C   0  0  0  0  0  0  0  0  0  0  0  0
    3.4394    1.5712    0.0000 C   0  0  0  0  0  0  0  0  0  0  0  0
    3.9403    0.7036    0.0000 C   0  0  0  0  0  0  0  0  0  0  0  0
   -1.7969    1.4612    0.0000 H   0  0  0  0  0  0  0  0  0  0  0  0
  2  8  1  0  0  0  0
  3 17  1  6  0  0  0
  3  5  1  0  0  0  0
  3 24  1  0  0  0  0
  4  7  1  0  0  0  0
  5  1  1  6  0  0  0
  5 26  1  0  0  0  0
  6 15  1  6  0  0  0
  6  9  1  0  0  0  0
  6 10  1  0  0  0  0
  6 23  1  0  0  0  0
  7 15  1  1  0  0  0
  7 25  1  0  0  0  0
  8  9  1  0  0  0  0
  9 11  2  0  0  0  0
 10 12  2  0  0  0  0
 11 22  1  0  0  0  0
 12 22  1  0  0  0  0
 13 19  1  6  0  0  0
 13  2  1  0  0  0  0
 13 14  1  0  0  0  0
 15 13  1  1  0  0  0
 15 16  1  0  0  0  0
 17 19  1  1  0  0  0
 17  4  1  0  0  0  0
 17 18  1  0  0  0  0
 19  1  1  0  0  0  0
 19 20  1  6  0  0  0
 22 21  2  0  0  0  0
 24 27  1  0  0  0  0
 25 32  1  0  0  0  0
 26 27  1  0  0  0  0
 27 29  1  0  0  0  0
 28 27  1  0  0  0  0
 28 31  1  0  0  0  0
 29 30  1  0  0  0  0
 31 30  1  0  0  0  0
M  END
$$$$
OC1C(O)COCC1O
 OpenBabel07182308452D

 11 11  0  0  0  0  0  0  0  0999 V2000
   -5.4427   -1.7062    0.0000 C   0  0  0  0  0  0  0  0  0  0  0  0
   -5.8923   -2.4942    0.0000 C   0  0  3  0  0  0  0  0  0  0  0  0
   -6.2981   -2.0108    0.0000 O   0  0  0  0  0  0  0  0  0  0  0  0
   -5.1380   -2.2912    0.0000 O   0  0  0  0  0  0  0  0  0  0  0  0
   -6.7187   -2.3249    0.0000 C   0  0  3  0  0  0  0  0  0  0  0  0
   -7.1005   -1.8464    0.0000 C   0  0  0  0  0  0  0  0  0  0  0  0
   -7.5017   -2.5715    0.0000 C   0  0  3  0  0  0  0  0  0  0  0  0
   -6.7187   -1.3631    0.0000 O   0  0  0  0  0  0  0  0  0  0  0  0
   -7.5017   -3.3883    0.0000 O   0  0  0  0  0  0  0  0  0  0  0  0
   -5.8787   -0.8781    0.0000 H   0  0  0  0  0  0  0  0  0  0  0  0
   -8.3417   -3.8733    0.0000 H   0  0  0  0  0  0  0  0  0  0  0  0
  1  2  1  0  0  0  0
  1  3  1  0  0  0  0
  2  4  1  0  0  0  0
  2  5  1  0  0  0  0
  3  6  1  0  0  0  0
  5  7  1  0  0  0  0
  5  8  1  0  0  0  0
  6  7  1  0  0  0  0
  7  9  1  0  0  0  0
  8 10  1  0  0  0  0
  9 11  1  0  0  0  0
M  END
$$$$
Cc1ncc(c(n1)N)C
 OpenBabel07182308452D

 11 11  0  0  0  0  0  0  0  0999 V2000
   -6.1725    1.9720    0.0000 C   0  0  0  0  0  0  0  0  0  0  0  0
   -6.1725    2.7744    0.0000 N   0  0  0  0  0  0  0  0  0  0  0  0
   -6.8878    1.5659    0.0000 C   0  0  0  0  0  0  0  0  0  0  0  0
   -6.8878    3.1756    0.0000 C   0  0  0  0  0  0  0  0  0  0  0  0
   -7.5791    1.9720    0.0000 C   0  0  0  0  0  0  0  0  0  0  0  0
   -6.8878    0.7395    0.0000 C   0  0  0  0  0  0  0  0  0  0  0  0
   -6.8878    4.0070    0.0000 C   0  0  0  0  0  0  0  0  0  0  0  0
   -7.6129    2.7744    0.0000 N   0  0  0  0  0  0  0  0  0  0  0  0
   -8.3139    1.5659    0.0000 N   0  0  0  0  0  0  0  0  0  0  0  0
   -9.1571    2.0740    0.0000 H   0  0  0  0  0  0  0  0  0  0  0  0
   -8.3323    0.5816    0.0000 H   0  0  0  0  0  0  0  0  0  0  0  0
  1  2  2  0  0  0  0
  1  3  1  0  0  0  0
  2  4  1  0  0  0  0
  3  5  2  0  0  0  0
  3  6  1  0  0  0  0
  4  7  1  0  0  0  0
  4  8  2  0  0  0  0
  5  9  1  0  0  0  0
  5  8  1  0  0  0  0
  9 10  1  0  0  0  0
  9 11  1  0  0  0  0
M  END
$$$$
c1nccs1
 OpenBabel07182308452D

  5  5  0  0  0  0  0  0  0  0999 V2000
    2.9532    0.7395    0.0000 C   0  0  0  0  0  0  0  0  0  0  0  0
    3.7122    0.4592    0.0000 N   0  0  0  0  0  0  0  0  0  0  0  0
    2.9532    1.5659    0.0000 S   0  0  0  0  0  0  0  0  0  0  0  0
    4.2196    1.1164    0.0000 C   0  0  0  0  0  0  0  0  0  0  0  0
    3.7122    1.8125    0.0000 C   0  0  0  0  0  0  0  0  0  0  0  0
  1  2  2  0  0  0  0
  1  3  1  0  0  0  0
  2  4  1  0  0  0  0
  3  5  1  0  0  0  0
  4  5  2  0  0  0  0
M  END
$$$$
Cc1ccc(cc1)N
 OpenBabel07182308452D

  8  8  0  0  0  0  0  0  0  0999 V2000
    3.7935    2.1904    0.0000 N   0  0  0  0  0  0  0  0  0  0  0  0
    3.7935    1.3654    0.0000 C   0  0  0  0  0  0  0  0  0  0  0  0
    3.7935   -1.1096    0.0000 C   0  0  0  0  0  0  0  0  0  0  0  0
    3.7935   -0.2846    0.0000 C   0  0  0  0  0  0  0  0  0  0  0  0
    3.0791    0.9529    0.0000 C   0  0  0  0  0  0  0  0  0  0  0  0
    4.5080    0.9529    0.0000 C   0  0  0  0  0  0  0  0  0  0  0  0
    3.0791    0.1279    0.0000 C   0  0  0  0  0  0  0  0  0  0  0  0
    4.5080    0.1279    0.0000 C   0  0  0  0  0  0  0  0  0  0  0  0
  1  2  1  0  0  0  0
  2  5  2  0  0  0  0
  2  6  1  0  0  0  0
  3  4  1  0  0  0  0
  4  7  2  0  0  0  0
  4  8  1  0  0  0  0
  5  7  1  0  0  0  0
  6  8  2  0  0  0  0
M  END
$$$$
c1cccs1
 OpenBabel07182308452D

  5  5  0  0  1  0  0  0  0  0999 V2000
    8.1753    0.3429    0.0000 S   0  0  0  0  0  0  0  0  0  0  0  0
    7.4203    0.0102    0.0000 C   0  0  0  0  0  0  0  0  0  0  0  0
    8.7250   -0.2723    0.0000 C   0  0  0  0  0  0  0  0  0  0  0  0
    7.5034   -0.8106    0.0000 C   0  0  0  0  0  0  0  0  0  0  0  0
    8.3097   -0.9852    0.0000 C   0  0  0  0  0  0  0  0  0  0  0  0
  1  2  1  0  0  0  0
  1  3  1  0  0  0  0
  2  4  2  0  0  0  0
  3  5  2  0  0  0  0
  4  5  1  0  0  0  0
M  END
$$$$
Cc1nc(=O)c2c([nH]1)cccc2
 OpenBabel07182308452D

 13 14  0  0  1  0  0  0  0  0999 V2000
    3.0790   -0.7894    0.0000 O   0  0  0  0  0  0  0  0  0  0  0  0
    3.0790    1.6857    0.0000 N   0  0  0  0  0  0  0  0  0  0  0  0
    2.3645    0.4481    0.0000 N   0  0  0  0  0  0  0  0  0  0  0  0
    5.2785    0.4310    0.0000 C   0  0  0  0  0  0  0  0  0  0  0  0
    3.7935    0.4481    0.0000 C   0  0  0  0  0  0  0  0  0  0  0  0
    4.5310    0.0071    0.0000 C   0  0  0  0  0  0  0  0  0  0  0  0
    3.7935    1.2732    0.0000 C   0  0  0  0  0  0  0  0  0  0  0  0
    5.2785    1.2903    0.0000 C   0  0  0  0  0  0  0  0  0  0  0  0
    4.5310    1.7143    0.0000 C   0  0  0  0  0  0  0  0  0  0  0  0
    3.0790    0.0356    0.0000 C   0  0  0  0  0  0  0  0  0  0  0  0
    2.3645    1.2732    0.0000 C   0  0  0  0  0  0  0  0  0  0  0  0
    1.6500    1.6857    0.0000 C   0  0  0  0  0  0  0  0  0  0  0  0
    3.0790    2.6702    0.0000 H   0  0  0  0  0  0  0  0  0  0  0  0
  1 10  2  0  0  0  0
  2  7  1  0  0  0  0
  2 11  1  0  0  0  0
  2 13  1  0  0  0  0
  3 10  1  0  0  0  0
  3 11  2  0  0  0  0
  4  6  2  0  0  0  0
  4  8  1  0  0  0  0
  5  6  1  0  0  0  0
  5  7  2  0  0  0  0
  5 10  1  0  0  0  0
  7  9  1  0  0  0  0
  8  9  2  0  0  0  0
 11 12  1  0  0  0  0
M  END
$$$$
C#C[C@]1(O)CC[C@@H]2C1CC(=C)[C@H]1[C@H]2CCC2=CC(=O)CC[C@H]12
 OpenBabel07182308452D

 27 30  0  0  1  0  0  0  0  0999 V2000
    1.8036   -0.1138    0.0000 C   0  0  0  0  0  0  0  0  0  0  0  0
    0.3045   -1.0964    0.0000 C   0  0  0  0  0  0  0  0  0  0  0  0
    1.8036    1.2211    0.0000 C   0  0  2  0  0  0  0  0  0  0  0  0
    0.3045    1.3786    0.0000 C   0  0  0  0  0  0  0  0  0  0  0  0
    2.2885    0.5536    0.0000 C   0  0  0  0  0  0  0  0  0  0  0  0
   -1.1245   -0.2714    0.0000 C   0  0  2  0  0  0  0  0  0  0  0  0
   -0.4100    0.9661    0.0000 C   0  0  0  0  0  0  0  0  0  0  0  0
   -0.4100   -1.5089    0.0000 C   0  0  0  0  0  0  0  0  0  0  0  0
   -1.1245   -1.0964    0.0000 C   0  0  0  0  0  0  0  0  0  0  0  0
   -1.8390    0.1411    0.0000 C   0  0  0  0  0  0  0  0  0  0  0  0
   -1.8390   -1.5089    0.0000 C   0  0  0  0  0  0  0  0  0  0  0  0
   -2.5534   -0.2714    0.0000 C   0  0  0  0  0  0  0  0  0  0  0  0
    0.3045   -0.2714    0.0000 C   0  0  2  0  0  0  0  0  0  0  0  0
    0.3045    0.5536    0.0000 H   0  0  0  0  0  0  0  0  0  0  0  0
   -0.4100    0.1411    0.0000 C   0  0  1  0  0  0  0  0  0  0  0  0
   -0.4100   -0.6839    0.0000 H   0  0  0  0  0  0  0  0  0  0  0  0
    1.0189    0.9661    0.0000 C   0  0  3  0  0  0  0  0  0  0  0  0
    1.0189    0.1411    0.0000 C   0  0  1  0  0  0  0  0  0  0  0  0
    1.0189   -0.6839    0.0000 H   0  0  0  0  0  0  0  0  0  0  0  0
   -3.2679   -1.5089    0.0000 O   0  0  0  0  0  0  0  0  0  0  0  0
   -2.5534   -1.0964    0.0000 C   0  0  0  0  0  0  0  0  0  0  0  0
   -1.1245    0.5536    0.0000 H   0  0  0  0  0  0  0  0  0  0  0  0
    2.5181    1.6336    0.0000 C   0  0  0  0  0  0  0  0  0  0  0  0
    1.8036    2.0461    0.0000 O   0  0  0  0  0  0  0  0  0  0  0  0
    3.2325    2.0461    0.0000 C   0  0  0  0  0  0  0  0  0  0  0  0
   -1.1245    1.3786    0.0000 C   0  0  0  0  0  0  0  0  0  0  0  0
    2.6436    2.5311    0.0000 H   0  0  0  0  0  0  0  0  0  0  0  0
  2  8  1  0  0  0  0
  3  5  1  0  0  0  0
  3 23  1  6  0  0  0
  3 24  1  0  0  0  0
  4  7  1  0  0  0  0
  5  1  1  0  0  0  0
  6 15  1  6  0  0  0
  6  9  1  0  0  0  0
  6 10  1  0  0  0  0
  6 22  1  0  0  0  0
  7 26  2  0  0  0  0
  8  9  1  0  0  0  0
  9 11  2  0  0  0  0
 10 12  1  0  0  0  0
 11 21  1  0  0  0  0
 12 21  1  0  0  0  0
 13 18  1  6  0  0  0
 13  2  1  0  0  0  0
 13 14  1  0  0  0  0
 15 13  1  1  0  0  0
 15  7  1  0  0  0  0
 15 16  1  0  0  0  0
 17  3  1  0  0  0  0
 17  4  1  0  0  0  0
 18 17  1  0  0  0  0
 18  1  1  0  0  0  0
 18 19  1  6  0  0  0
 21 20  2  0  0  0  0
 23 25  3  0  0  0  0
 24 27  1  0  0  0  0
M  END
$$$$
O[C@H]1C=C[C@@H]2[C@@]34[C@H]1Oc1c4c(C[C@H]2N(CC3)C)ccc1O
 OpenBabel07182308452D

 26 30  0  0  1  0  0  0  0  0999 V2000
    2.3452    0.0738    0.0000 O   0  0  0  0  0  0  0  0  0  0  0  0
    2.1443   -2.0555    0.0000 O   0  0  0  0  0  0  0  0  0  0  0  0
    2.1443    2.1117    0.0000 O   0  0  0  0  0  0  0  0  0  0  0  0
    5.7533   -0.7968    0.0000 N   0  0  0  0  0  0  0  0  0  0  0  0
    3.6100   -0.3844    0.0000 C   0  0  1  0  0  0  0  0  0  0  0  0
    4.3245   -0.7968    0.0000 C   0  0  2  0  0  0  0  0  0  0  0  0
    5.0389   -0.3843    0.0000 C   0  0  1  0  0  0  0  0  0  0  0  0
    2.8955   -0.7968    0.0000 C   0  0  2  0  0  0  0  0  0  0  0  0
    4.0866    0.2205    0.0000 C   0  0  0  0  0  0  0  0  0  0  0  0
    3.6100    0.4405    0.0000 C   0  0  0  0  0  0  0  0  0  0  0  0
    5.0390    0.4404    0.0000 C   0  0  0  0  0  0  0  0  0  0  0  0
    5.2599    0.2206    0.0000 C   0  0  0  0  0  0  0  0  0  0  0  0
    4.3244    0.8530    0.0000 C   0  0  0  0  0  0  0  0  0  0  0  0
    2.8955   -1.6219    0.0000 C   0  0  2  0  0  0  0  0  0  0  0  0
    4.3245   -1.6218    0.0000 C   0  0  0  0  0  0  0  0  0  0  0  0
    2.8954    0.8530    0.0000 C   0  0  0  0  0  0  0  0  0  0  0  0
    3.6100   -2.0343    0.0000 C   0  0  0  0  0  0  0  0  0  0  0  0
    6.3444   -1.4318    0.0000 C   0  0  0  0  0  0  0  0  0  0  0  0
    4.3245    1.6779    0.0000 C   0  0  0  0  0  0  0  0  0  0  0  0
    2.8955    1.6780    0.0000 C   0  0  0  0  0  0  0  0  0  0  0  0
    3.6099    2.0903    0.0000 C   0  0  0  0  0  0  0  0  0  0  0  0
    4.7705   -1.3284    0.0000 H   0  0  0  0  0  0  0  0  0  0  0  0
    5.2769   -1.0363    0.0000 H   0  0  0  0  0  0  0  0  0  0  0  0
    2.2291   -0.9899    0.0000 H   0  0  0  0  0  0  0  0  0  0  0  0
    1.3043   -1.5704    0.0000 H   0  0  0  0  0  0  0  0  0  0  0  0
    2.1443    3.0487    0.0000 H   0  0  0  0  0  0  0  0  0  0  0  0
  1  8  1  0  0  0  0
  1 16  1  0  0  0  0
  2 25  1  0  0  0  0
  3 20  1  0  0  0  0
  3 26  1  0  0  0  0
  4  7  1  0  0  0  0
  4 12  1  0  0  0  0
  4 18  1  0  0  0  0
  5  6  1  6  0  0  0
  5  9  1  0  0  0  0
  5 10  1  0  0  0  0
  6  7  1  6  0  0  0
  6 15  1  0  0  0  0
  6 22  1  0  0  0  0
  7 11  1  0  0  0  0
  7 23  1  6  0  0  0
  8  5  1  1  0  0  0
  8 24  1  0  0  0  0
  9 12  1  0  0  0  0
 10 13  2  0  0  0  0
 10 16  1  0  0  0  0
 11 13  1  0  0  0  0
 13 19  1  0  0  0  0
 14  2  1  0  0  0  0
 14  8  1  6  0  0  0
 14 17  1  0  0  0  0
 15 17  2  0  0  0  0
 16 20  2  0  0  0  0
 19 21  2  0  0  0  0
 20 21  1  0  0  0  0
M  END
$$$$
CN1CCCCC1
 OpenBabel07182308452D

  7  7  0  0  0  0  0  0  0  0999 V2000
    6.1264   -9.0438    0.0000 C   0  0  0  0  0  0  0  0  0  0  0  0
    6.8479   -8.6554    0.0000 N   0  0  0  0  0  0  0  0  0  0  0  0
    7.5510   -9.0438    0.0000 C   0  0  0  0  0  0  0  0  0  0  0  0
    7.5510   -9.8763    0.0000 C   0  0  0  0  0  0  0  0  0  0  0  0
    6.8479  -10.2835    0.0000 C   0  0  0  0  0  0  0  0  0  0  0  0
    6.1264   -9.8763    0.0000 C   0  0  0  0  0  0  0  0  0  0  0  0
    6.8479   -7.8228    0.0000 C   0  0  0  0  0  0  0  0  0  0  0  0
  2  1  1  0  0  0  0
  3  2  1  0  0  0  0
  4  3  1  0  0  0  0
  5  4  1  0  0  0  0
  6  1  1  0  0  0  0
  6  5  1  0  0  0  0
  7  2  1  0  0  0  0
M  END
$$$$
Cc1nnc2n1CCCC2
 OpenBabel07182308452D

 10 11  0  0  0  0  0  0  0  0999 V2000
    3.0790   -2.3367    0.0000 N   0  0  0  0  0  0  0  0  0  0  0  0
    4.3411   -2.7492    0.0000 N   0  0  0  0  0  0  0  0  0  0  0  0
    3.8596   -3.4131    0.0000 N   0  0  0  0  0  0  0  0  0  0  0  0
    4.1159   -1.3010    0.0000 C   0  0  0  0  0  0  0  0  0  0  0  0
    2.3645   -1.9242    0.0000 C   0  0  0  0  0  0  0  0  0  0  0  0
    3.8596   -2.0853    0.0000 C   0  0  0  0  0  0  0  0  0  0  0  0
    1.6500   -2.3367    0.0000 C   0  0  0  0  0  0  0  0  0  0  0  0
    1.6500   -3.1617    0.0000 C   0  0  0  0  0  0  0  0  0  0  0  0
    2.3645   -3.5742    0.0000 C   0  0  0  0  0  0  0  0  0  0  0  0
    3.0790   -3.1617    0.0000 C   0  0  0  0  0  0  0  0  0  0  0  0
  1  5  1  0  0  0  0
  1  6  1  0  0  0  0
  1 10  1  0  0  0  0
  2  3  1  0  0  0  0
  2  6  2  0  0  0  0
  3 10  2  0  0  0  0
  4  6  1  0  0  0  0
  5  7  1  0  0  0  0
  7  8  1  0  0  0  0
  8  9  1  0  0  0  0
  9 10  1  0  0  0  0
M  END
$$$$
Nc1nc(=O)c2c([nH]1)n(C)cn2
 OpenBabel07182308452D

 15 16  0  0  0  0  0  0  0  0999 V2000
    3.5220   -2.9157    0.0000 O   0  0  0  0  0  0  0  0  0  0  0  0
    5.0171   -0.6018    0.0000 N   0  0  0  0  0  0  0  0  0  0  0  0
    3.5220   -0.4406    0.0000 N   0  0  0  0  0  0  0  0  0  0  0  0
    5.0171   -1.9296    0.0000 N   0  0  0  0  0  0  0  0  0  0  0  0
    2.8075   -1.6782    0.0000 N   0  0  0  0  0  0  0  0  0  0  0  0
    2.0930   -0.4406    0.0000 N   0  0  0  0  0  0  0  0  0  0  0  0
    5.2734    0.1824    0.0000 C   0  0  0  0  0  0  0  0  0  0  0  0
    4.2365   -0.8532    0.0000 C   0  0  0  0  0  0  0  0  0  0  0  0
    4.2365   -1.6782    0.0000 C   0  0  0  0  0  0  0  0  0  0  0  0
    5.4986   -1.2657    0.0000 C   0  0  0  0  0  0  0  0  0  0  0  0
    3.5220   -2.0907    0.0000 C   0  0  0  0  0  0  0  0  0  0  0  0
    2.8075   -0.8532    0.0000 C   0  0  0  0  0  0  0  0  0  0  0  0
    3.5220    0.5439    0.0000 H   0  0  0  0  0  0  0  0  0  0  0  0
    2.0931    0.5439    0.0000 H   0  0  0  0  0  0  0  0  0  0  0  0
    1.2404   -0.9328    0.0000 H   0  0  0  0  0  0  0  0  0  0  0  0
  1 11  2  0  0  0  0
  2  7  1  0  0  0  0
  2  8  1  0  0  0  0
  2 10  1  0  0  0  0
  3  8  1  0  0  0  0
  3 12  1  0  0  0  0
  3 13  1  0  0  0  0
  4  9  1  0  0  0  0
  4 10  2  0  0  0  0
  5 11  1  0  0  0  0
  5 12  2  0  0  0  0
  6 12  1  0  0  0  0
  6 14  1  0  0  0  0
  6 15  1  0  0  0  0
  8  9  2  0  0  0  0
  9 11  1  0  0  0  0
M  END
$$$$
OCO
 OpenBabel07182308452D

  3  2  0  0  1  0  0  0  0  0999 V2000
    2.9320    9.5179    0.0000 C   0  0  0  0  0  0  0  0  0  0  0  0
    2.1070    9.5179    0.0000 O   0  0  0  0  0  0  0  0  0  0  0  0
    3.3445    8.8034    0.0000 O   0  0  0  0  0  0  0  0  0  0  0  0
  2  1  1  0  0  0  0
  3  1  1  0  0  0  0
M  END
$$$$
O=P
 OpenBabel07182308452D

  2  1  0  0  1  0  0  0  0  0999 V2000
    4.9945    8.8034    0.0000 O   0  0  0  0  0  0  0  0  0  0  0  0
    4.1695    8.8034    0.0000 P   0  0  0  0  0  0  0  0  0  0  0  0
  2  1  2  0  0  0  0
M  END
$$$$
N[C@@H]1C(=O)N2[C@@H]1SC(C2)(C)C
 OpenBabel07182308452D

 13 14  0  0  0  0  0  0  0  0999 V2000
    0.8340    0.3306    0.0000 C   0  0  2  0  0  0  0  0  0  0  0  0
    0.8340   -0.4943    0.0000 C   0  0  0  0  0  0  0  0  0  0  0  0
    1.6590    0.3306    0.0000 C   0  0  2  0  0  0  0  0  0  0  0  0
    1.6590   -0.4943    0.0000 N   0  0  0  0  0  0  0  0  0  0  0  0
    2.4436   -0.7492    0.0000 C   0  0  0  0  0  0  0  0  0  0  0  0
    2.9285   -0.0818    0.0000 C   0  0  0  0  0  0  0  0  0  0  0  0
    2.4436    0.5855    0.0000 S   0  0  0  0  0  0  0  0  0  0  0  0
    3.6473   -0.4868    0.0000 C   0  0  0  0  0  0  0  0  0  0  0  0
    3.6473    0.3231    0.0000 C   0  0  0  0  0  0  0  0  0  0  0  0
    0.1195    0.7431    0.0000 N   0  0  0  0  0  0  0  0  0  0  0  0
    0.2506   -1.0777    0.0000 O   0  0  0  0  0  0  0  0  0  0  0  0
    1.6590    1.1556    0.0000 H   0  0  0  0  0  0  0  0  0  0  0  0
    0.1194    1.7276    0.0000 H   0  0  0  0  0  0  0  0  0  0  0  0
  1 10  1  0  0  0  0
  1  2  1  0  0  0  0
  1  3  1  1  0  0  0
  2 11  2  0  0  0  0
  2  4  1  0  0  0  0
  3  4  1  0  0  0  0
  3  7  1  0  0  0  0
  3 12  1  6  0  0  0
  4  5  1  0  0  0  0
  5  6  1  0  0  0  0
  6  7  1  0  0  0  0
  6  8  1  0  0  0  0
  6  9  1  0  0  0  0
 10 13  1  0  0  0  0
M  END
$$$$
Cc1ccno1
 OpenBabel07182308452D

  6  6  0  0  0  0  0  0  0  0999 V2000
   -2.2009    1.7365    0.0000 O   0  0  0  0  0  0  0  0  0  0  0  0
   -2.6145    1.0227    0.0000 N   0  0  0  0  0  0  0  0  0  0  0  0
   -2.0635    0.4088    0.0000 C   0  0  0  0  0  0  0  0  0  0  0  0
   -1.3093    0.7431    0.0000 C   0  0  0  0  0  0  0  0  0  0  0  0
   -1.3942    1.5637    0.0000 C   0  0  0  0  0  0  0  0  0  0  0  0
   -0.8108    2.1470    0.0000 C   0  0  0  0  0  0  0  0  0  0  0  0
  1  2  1  0  0  0  0
  1  5  1  0  0  0  0
  2  3  2  0  0  0  0
  3  4  1  0  0  0  0
  4  5  2  0  0  0  0
  5  6  1  0  0  0  0
M  END
$$$$
Fc1cccc(c1)Cl
 OpenBabel07182308452D

  8  8  0  0  0  0  0  0  0  0999 V2000
   -2.2770   -0.3880    0.0000 C   0  0  0  0  0  0  0  0  0  0  0  0
   -3.0640   -0.6357    0.0000 C   0  0  0  0  0  0  0  0  0  0  0  0
   -3.2429   -1.4411    0.0000 C   0  0  0  0  0  0  0  0  0  0  0  0
   -2.6350   -1.9988    0.0000 C   0  0  0  0  0  0  0  0  0  0  0  0
   -1.8480   -1.7511    0.0000 C   0  0  0  0  0  0  0  0  0  0  0  0
   -1.6691   -0.9457    0.0000 C   0  0  0  0  0  0  0  0  0  0  0  0
   -0.8722   -0.7322    0.0000 F   0  0  0  0  0  0  0  0  0  0  0  0
   -3.6473   -0.0524    0.0000 Cl  0  0  0  0  0  0  0  0  0  0  0  0
  1  2  2  0  0  0  0
  1  6  1  0  0  0  0
  2  3  1  0  0  0  0
  2  8  1  0  0  0  0
  3  4  2  0  0  0  0
  4  5  1  0  0  0  0
  5  6  2  0  0  0  0
  6  7  1  0  0  0  0
M  END
$$$$
SC1=CN2[C@H]([C@H]1C)CC2=O
 OpenBabel07182308452D

 12 13  0  0  0  0  0  0  0  0999 V2000
   -1.6637   -0.1982    0.0000 C   0  0  0  0  0  0  0  0  0  0  0  0
   -1.1736    0.4758    0.0000 C   0  0  0  0  0  0  0  0  0  0  0  0
   -1.6637    1.1193    0.0000 C   0  0  1  0  0  0  0  0  0  0  0  0
   -2.4298    0.0469    0.0000 N   0  0  0  0  0  0  0  0  0  0  0  0
   -2.4298    0.8742    0.0000 C   0  0  1  0  0  0  0  0  0  0  0  0
   -3.2877    0.8742    0.0000 C   0  0  0  0  0  0  0  0  0  0  0  0
   -3.2877    0.0469    0.0000 C   0  0  0  0  0  0  0  0  0  0  0  0
   -3.8392   -0.5352    0.0000 O   0  0  0  0  0  0  0  0  0  0  0  0
   -1.4186    1.9158    0.0000 C   0  0  0  0  0  0  0  0  0  0  0  0
   -0.3463    0.4758    0.0000 S   0  0  0  0  0  0  0  0  0  0  0  0
   -3.2571    1.7014    0.0000 H   0  0  0  0  0  0  0  0  0  0  0  0
   -2.4298    1.7014    0.0000 H   0  0  0  0  0  0  0  0  0  0  0  0
  2  1  2  0  0  0  0
  3  2  1  0  0  0  0
  3  5  1  1  0  0  0
  3  9  1  0  0  0  0
  4  1  1  0  0  0  0
  5  4  1  0  0  0  0
  5 12  1  6  0  0  0
  6  5  1  0  0  0  0
  6 11  1  0  0  0  0
  7  4  1  0  0  0  0
  7  6  1  0  0  0  0
  8  7  2  0  0  0  0
 10  2  1  0  0  0  0
M  END
$$$$
C#C[C@]1(O)CC[C@@H]2C1CC(=C)[C@H]1[C@H]2CCC2=CCCC[C@H]12
 OpenBabel07182308452D

 26 29  0  0  1  0  0  0  0  0999 V2000
    5.9104    1.5551    0.0000 O   0  0  0  0  0  0  0  0  0  0  0  0
    5.3833    0.5186    0.0000 C   0  0  3  0  0  0  0  0  0  0  0  0
    5.3833   -0.3064    0.0000 C   0  0  2  0  0  0  0  0  0  0  0  0
    4.6689   -0.7189    0.0000 C   0  0  1  0  0  0  0  0  0  0  0  0
    3.9544   -0.3064    0.0000 C   0  0  1  0  0  0  0  0  0  0  0  0
    6.1640    0.7700    0.0000 C   0  0  2  0  0  0  0  0  0  0  0  0
    6.1640   -0.5579    0.0000 C   0  0  0  0  0  0  0  0  0  0  0  0
    4.6689    0.9311    0.0000 C   0  0  0  0  0  0  0  0  0  0  0  0
    6.6455    0.1061    0.0000 C   0  0  0  0  0  0  0  0  0  0  0  0
    3.2036   -0.7246    0.0000 C   0  0  2  0  0  0  0  0  0  0  0  0
    4.6821   -1.5783    0.0000 C   0  0  0  0  0  0  0  0  0  0  0  0
    3.9544    0.5186    0.0000 C   0  0  0  0  0  0  0  0  0  0  0  0
    3.9412   -2.0136    0.0000 C   0  0  0  0  0  0  0  0  0  0  0  0
    3.1970   -1.5840    0.0000 C   0  0  0  0  0  0  0  0  0  0  0  0
    2.4389   -0.2592    0.0000 C   0  0  0  0  0  0  0  0  0  0  0  0
    6.8323    1.2538    0.0000 C   0  0  0  0  0  0  0  0  0  0  0  0
    1.6570   -0.6948    0.0000 C   0  0  0  0  0  0  0  0  0  0  0  0
    2.4252   -2.0375    0.0000 C   0  0  0  0  0  0  0  0  0  0  0  0
    3.2399    0.9311    0.0000 C   0  0  0  0  0  0  0  0  0  0  0  0
    1.6500   -1.5899    0.0000 C   0  0  0  0  0  0  0  0  0  0  0  0
    7.5006    1.7376    0.0000 C   0  0  0  0  0  0  0  0  0  0  0  0
    5.4532   -0.9628    0.0000 H   0  0  0  0  0  0  0  0  0  0  0  0
    5.2430   -1.0446    0.0000 H   0  0  0  0  0  0  0  0  0  0  0  0
    4.5260    0.0236    0.0000 H   0  0  0  0  0  0  0  0  0  0  0  0
    3.2163   -0.0647    0.0000 H   0  0  0  0  0  0  0  0  0  0  0  0
    6.5607    2.2748    0.0000 H   0  0  0  0  0  0  0  0  0  0  0  0
  1 26  1  0  0  0  0
  2  3  1  0  0  0  0
  2  6  1  0  0  0  0
  2  8  1  0  0  0  0
  3  4  1  1  0  0  0
  3  7  1  0  0  0  0
  3 22  1  0  0  0  0
  4  5  1  1  0  0  0
  4 11  1  0  0  0  0
  4 23  1  0  0  0  0
  5 10  1  6  0  0  0
  5 12  1  0  0  0  0
  5 24  1  0  0  0  0
  6  1  1  0  0  0  0
  6  9  1  0  0  0  0
  6 16  1  6  0  0  0
  7  9  1  0  0  0  0
  8 12  1  0  0  0  0
 10 14  1  0  0  0  0
 10 15  1  0  0  0  0
 10 25  1  1  0  0  0
 11 13  1  0  0  0  0
 12 19  2  0  0  0  0
 13 14  1  0  0  0  0
 14 18  2  0  0  0  0
 15 17  1  0  0  0  0
 16 21  3  0  0  0  0
 17 20  1  0  0  0  0
 18 20  1  0  0  0  0
M  END
$$$$
C[C@H]1C2[C@H]3N[C@H]3CN2C2=C1C(=O)C(=C(C2=O)C)N
 OpenBabel07182308452D

 23 26  0  0  0  0  0  0  0  0999 V2000
   -0.3126   -0.4468    0.0000 C   0  0  0  0  0  0  0  0  0  0  0  0
   -0.3126   -1.2718    0.0000 C   0  0  0  0  0  0  0  0  0  0  0  0
   -1.0270   -0.0343    0.0000 C   0  0  0  0  0  0  0  0  0  0  0  0
   -1.0270   -1.6844    0.0000 C   0  0  0  0  0  0  0  0  0  0  0  0
   -1.7416   -0.4468    0.0000 C   0  0  0  0  0  0  0  0  0  0  0  0
   -1.7416   -1.2718    0.0000 C   0  0  0  0  0  0  0  0  0  0  0  0
    0.4720   -0.1919    0.0000 C   0  0  2  0  0  0  0  0  0  0  0  0
    0.9569   -0.8593    0.0000 C   0  0  3  0  0  0  0  0  0  0  0  0
    0.4720   -1.5268    0.0000 N   0  0  0  0  0  0  0  0  0  0  0  0
    1.7416   -1.1142    0.0000 C   0  0  2  0  0  0  0  0  0  0  0  0
    1.7416   -1.9393    0.0000 C   0  0  2  0  0  0  0  0  0  0  0  0
    0.9569   -2.1943    0.0000 C   0  0  0  0  0  0  0  0  0  0  0  0
   -1.0270    0.7906    0.0000 O   0  0  0  0  0  0  0  0  0  0  0  0
   -1.0270   -2.5094    0.0000 O   0  0  0  0  0  0  0  0  0  0  0  0
   -2.4560   -0.0343    0.0000 N   0  0  0  0  0  0  0  0  0  0  0  0
    2.4560   -1.5268    0.0000 N   0  0  0  0  0  0  0  0  0  0  0  0
   -2.4560   -1.6844    0.0000 C   0  0  0  0  0  0  0  0  0  0  0  0
    0.7269    0.5926    0.0000 C   0  0  0  0  0  0  0  0  0  0  0  0
    1.9451   -0.5444    0.0000 H   0  0  0  0  0  0  0  0  0  0  0  0
    1.9215   -2.6035    0.0000 H   0  0  0  0  0  0  0  0  0  0  0  0
   -2.4560    0.9502    0.0000 H   0  0  0  0  0  0  0  0  0  0  0  0
   -3.3086   -0.5265    0.0000 H   0  0  0  0  0  0  0  0  0  0  0  0
    3.4760   -1.5269    0.0000 H   0  0  0  0  0  0  0  0  0  0  0  0
  2  1  2  0  0  0  0
  3  1  1  0  0  0  0
  4  2  1  0  0  0  0
  5  3  1  0  0  0  0
  6  4  1  0  0  0  0
  6  5  2  0  0  0  0
  7  1  1  0  0  0  0
  7 18  1  1  0  0  0
  8  7  1  0  0  0  0
  9  2  1  0  0  0  0
  9  8  1  0  0  0  0
 10  8  1  0  0  0  0
 10 11  1  6  0  0  0
 10 19  1  0  0  0  0
 11 16  1  0  0  0  0
 11 20  1  6  0  0  0
 12 11  1  0  0  0  0
 12  9  1  0  0  0  0
 13  3  2  0  0  0  0
 14  4  2  0  0  0  0
 15  5  1  0  0  0  0
 15 21  1  0  0  0  0
 15 22  1  0  0  0  0
 16 10  1  0  0  0  0
 16 23  1  0  0  0  0
 17  6  1  0  0  0  0
M  END
$$$$
CC1C(=O)NC(=O)NC1=O
 OpenBabel07182308452D

 12 12  0  0  1  0  0  0  0  0999 V2000
    1.8711    0.1658    0.0000 O   0  0  0  0  0  0  0  0  0  0  0  0
    4.7291    0.1658    0.0000 O   0  0  0  0  0  0  0  0  0  0  0  0
    3.3001   -2.3092    0.0000 O   0  0  0  0  0  0  0  0  0  0  0  0
    2.5856   -1.0717    0.0000 N   0  0  0  0  0  0  0  0  0  0  0  0
    4.0145   -1.0717    0.0000 N   0  0  0  0  0  0  0  0  0  0  0  0
    3.3001    0.1658    0.0000 C   0  0  0  0  0  0  0  0  0  0  0  0
    2.8876    0.8803    0.0000 C   0  0  0  0  0  0  0  0  0  0  0  0
    2.5856   -0.2467    0.0000 C   0  0  0  0  0  0  0  0  0  0  0  0
    4.0145   -0.2467    0.0000 C   0  0  0  0  0  0  0  0  0  0  0  0
    3.3001   -1.4842    0.0000 C   0  0  0  0  0  0  0  0  0  0  0  0
    1.7330   -1.5640    0.0000 H   0  0  0  0  0  0  0  0  0  0  0  0
    4.8671   -1.5639    0.0000 H   0  0  0  0  0  0  0  0  0  0  0  0
  1  8  2  0  0  0  0
  2  9  2  0  0  0  0
  3 10  2  0  0  0  0
  4  8  1  0  0  0  0
  4 10  1  0  0  0  0
  4 11  1  0  0  0  0
  5  9  1  0  0  0  0
  5 10  1  0  0  0  0
  5 12  1  0  0  0  0
  6  7  1  0  0  0  0
  6  8  1  0  0  0  0
  6  9  1  0  0  0  0
M  END
$$$$
Cc1ccc2c(c1)C(C)(C)CCC2(C)C
 OpenBabel07182308452D

 15 16  0  0  0  0  0  0  0  0999 V2000
    2.3645    0.9411    0.0000 C   0  0  0  0  0  0  0  0  0  0  0  0
    2.3645    2.5911    0.0000 C   0  0  0  0  0  0  0  0  0  0  0  0
    1.6500    1.3536    0.0000 C   0  0  0  0  0  0  0  0  0  0  0  0
    1.6500    2.1786    0.0000 C   0  0  0  0  0  0  0  0  0  0  0  0
    3.0790    1.3536    0.0000 C   0  0  0  0  0  0  0  0  0  0  0  0
    3.0790    2.1786    0.0000 C   0  0  0  0  0  0  0  0  0  0  0  0
    1.9520    0.2266    0.0000 C   0  0  0  0  0  0  0  0  0  0  0  0
    2.7770    0.2266    0.0000 C   0  0  0  0  0  0  0  0  0  0  0  0
    1.9520    3.3056    0.0000 C   0  0  0  0  0  0  0  0  0  0  0  0
    2.7770    3.3056    0.0000 C   0  0  0  0  0  0  0  0  0  0  0  0
    3.8165    0.9125    0.0000 C   0  0  0  0  0  0  0  0  0  0  0  0
    3.8165    2.6197    0.0000 C   0  0  0  0  0  0  0  0  0  0  0  0
    4.5640    1.3364    0.0000 C   0  0  0  0  0  0  0  0  0  0  0  0
    4.5640    2.1958    0.0000 C   0  0  0  0  0  0  0  0  0  0  0  0
    5.2769    2.6111    0.0000 C   0  0  0  0  0  0  0  0  0  0  0  0
  1  3  1  0  0  0  0
  1  5  1  0  0  0  0
  1  7  1  0  0  0  0
  1  8  1  0  0  0  0
  2  4  1  0  0  0  0
  2  6  1  0  0  0  0
  2  9  1  0  0  0  0
  2 10  1  0  0  0  0
  3  4  1  0  0  0  0
  5  6  2  0  0  0  0
  5 11  1  0  0  0  0
  6 12  1  0  0  0  0
 11 13  2  0  0  0  0
 12 14  2  0  0  0  0
 13 14  1  0  0  0  0
 14 15  1  0  0  0  0
M  END
$$$$
O[C@H]1C[C@H]2CCc3c(CCN(C1)C2)c1c([nH]3)cccc1
 OpenBabel07182308452D

 23 26  0  0  0  0  0  0  0  0999 V2000
   -1.9829    0.2196    0.0000 C   0  0  0  0  0  0  0  0  0  0  0  0
   -2.6922    0.6489    0.0000 C   0  0  0  0  0  0  0  0  0  0  0  0
   -2.6922    1.4594    0.0000 C   0  0  0  0  0  0  0  0  0  0  0  0
   -4.0525    1.4594    0.0000 C   0  0  0  0  0  0  0  0  0  0  0  0
   -4.7426    1.8455    0.0000 C   0  0  0  0  0  0  0  0  0  0  0  0
   -5.4132    1.4594    0.0000 C   0  0  0  0  0  0  0  0  0  0  0  0
   -5.4132    0.6827    0.0000 C   0  0  0  0  0  0  0  0  0  0  0  0
   -4.7426    0.2919    0.0000 C   0  0  0  0  0  0  0  0  0  0  0  0
   -4.0525    0.6827    0.0000 C   0  0  0  0  0  0  0  0  0  0  0  0
   -3.3771    0.2919    0.0000 N   0  0  0  0  0  0  0  0  0  0  0  0
   -3.4592    1.8937    0.0000 C   0  0  0  0  0  0  0  0  0  0  0  0
   -3.4592    2.7621    0.0000 C   0  0  0  0  0  0  0  0  0  0  0  0
   -2.0504    2.7621    0.0000 N   0  0  3  0  0  0  0  0  0  0  0  0
   -2.0504    1.8985    0.0000 C   0  0  0  0  0  0  0  0  0  0  0  0
   -1.2640    1.5559    0.0000 C   0  0  2  0  0  0  0  0  0  0  0  0
   -1.2640    0.6683    0.0000 C   0  0  0  0  0  0  0  0  0  0  0  0
   -0.5693    1.9468    0.0000 C   0  0  0  0  0  0  0  0  0  0  0  0
   -0.5693    2.8200    0.0000 C   0  0  1  0  0  0  0  0  0  0  0  0
   -1.2882    3.2203    0.0000 C   0  0  0  0  0  0  0  0  0  0  0  0
   -0.1254    3.5099    0.0000 O   0  0  0  0  0  0  0  0  0  0  0  0
   -0.4349    1.0772    0.0000 H   0  0  0  0  0  0  0  0  0  0  0  0
   -3.3988   -0.6924    0.0000 H   0  0  0  0  0  0  0  0  0  0  0  0
    0.8435    3.4632    0.0000 H   0  0  0  0  0  0  0  0  0  0  0  0
  2  1  1  0  0  0  0
  3  2  2  0  0  0  0
  4  3  1  0  0  0  0
  5  4  1  0  0  0  0
  6  5  2  0  0  0  0
  7  6  1  0  0  0  0
  7  8  2  0  0  0  0
  8  9  1  0  0  0  0
  9 10  1  0  0  0  0
  9  4  2  0  0  0  0
 10  2  1  0  0  0  0
 10 22  1  0  0  0  0
 11  3  1  0  0  0  0
 12 11  1  0  0  0  0
 12 13  1  0  0  0  0
 13 14  1  0  0  0  0
 14 15  1  0  0  0  0
 15 16  1  0  0  0  0
 15 21  1  6  0  0  0
 16  1  1  0  0  0  0
 17 15  1  0  0  0  0
 18 17  1  0  0  0  0
 18 20  1  1  0  0  0
 19 18  1  0  0  0  0
 19 13  1  0  0  0  0
 20 23  1  0  0  0  0
M  END
$$$$
O[C@@H]1[C@H](O)C2C=CCN3[C@@H]2[C@@]2([C@H]1N(C)c1c2cccc1)CC3
 OpenBabel07182308452D

 26 30  0  0  0  0  0  0  0  0999 V2000
   -0.0868   -0.8369    0.0000 C   0  0  0  0  0  0  0  0  0  0  0  0
    0.6078   -0.4849    0.0000 C   0  0  0  0  0  0  0  0  0  0  0  0
    1.3026   -0.8610    0.0000 C   0  0  0  0  0  0  0  0  0  0  0  0
    2.6390   -0.8610    0.0000 C   0  0  1  0  0  0  0  0  0  0  0  0
    2.6390   -1.6524    0.0000 C   0  0  2  0  0  0  0  0  0  0  0  0
    3.2952   -2.1590    0.0000 C   0  0  2  0  0  0  0  0  0  0  0  0
    2.6559   -3.1745    0.0000 O   0  0  0  0  0  0  0  0  0  0  0  0
    4.0912   -1.7392    0.0000 C   0  0  1  0  0  0  0  0  0  0  0  0
    4.0912   -0.8369    0.0000 C   0  0  3  0  0  0  0  0  0  0  0  0
    3.3820   -0.4557    0.0000 C   0  0  2  0  0  0  0  0  0  0  0  0
    3.3820    0.3691    0.0000 N   0  0  3  0  0  0  0  0  0  0  0  0
    4.1153    0.7985    0.0000 C   0  0  0  0  0  0  0  0  0  0  0  0
    4.8198    0.3691    0.0000 C   0  0  0  0  0  0  0  0  0  0  0  0
    4.8198   -0.5234    0.0000 C   0  0  0  0  0  0  0  0  0  0  0  0
    1.9540    0.3691    0.0000 C   0  0  0  0  0  0  0  0  0  0  0  0
    1.9540   -0.3738    0.0000 C   0  0  0  0  0  0  0  0  0  0  0  0
    3.3820   -1.1940    0.0000 H   0  0  0  0  0  0  0  0  0  0  0  0
    4.9065   -2.2119    0.0000 O   0  0  0  0  0  0  0  0  0  0  0  0
    2.4943   -2.2675    0.0000 H   0  0  0  0  0  0  0  0  0  0  0  0
    2.0745   -1.9514    0.0000 N   0  0  0  0  0  0  0  0  0  0  0  0
    1.3026   -1.6379    0.0000 C   0  0  0  0  0  0  0  0  0  0  0  0
    0.6078   -2.0286    0.0000 C   0  0  0  0  0  0  0  0  0  0  0  0
   -0.0868   -1.6524    0.0000 C   0  0  0  0  0  0  0  0  0  0  0  0
    1.7127   -2.7016    0.0000 C   0  0  0  0  0  0  0  0  0  0  0  0
    1.6866   -3.1374    0.0000 H   0  0  0  0  0  0  0  0  0  0  0  0
    4.9047   -3.1819    0.0000 H   0  0  0  0  0  0  0  0  0  0  0  0
  2  1  1  0  0  0  0
  3  2  2  0  0  0  0
  3 21  1  0  0  0  0
  4  3  1  0  0  0  0
  4  5  1  1  0  0  0
  4 16  1  0  0  0  0
  5 19  1  1  0  0  0
  6  5  1  1  0  0  0
  6  7  1  0  0  0  0
  7 25  1  0  0  0  0
  8  6  1  0  0  0  0
  8  9  1  0  0  0  0
  8 18  1  1  0  0  0
  9 10  1  0  0  0  0
 10  4  1  1  0  0  0
 10 17  1  0  0  0  0
 11 10  1  0  0  0  0
 12 11  1  0  0  0  0
 13 12  1  0  0  0  0
 13 14  2  0  0  0  0
 14  9  1  0  0  0  0
 15 11  1  0  0  0  0
 15 16  1  0  0  0  0
 18 26  1  0  0  0  0
 20  5  1  0  0  0  0
 20 21  1  0  0  0  0
 21 22  2  0  0  0  0
 22 23  1  0  0  0  0
 23  1  2  0  0  0  0
 24 20  1  0  0  0  0
M  END
$$$$
O=C1NC(c2c1cccc2)O
 OpenBabel07182308452D

 13 14  0  0  0  0  0  0  0  0999 V2000
   -0.7496   -0.8452    0.0000 C   0  0  0  0  0  0  0  0  0  0  0  0
    0.5200   -1.2577    0.0000 N   0  0  0  0  0  0  0  0  0  0  0  0
    0.6886   -0.0866    0.0000 O   0  0  0  0  0  0  0  0  0  0  0  0
   -0.7496   -1.6702    0.0000 C   0  0  0  0  0  0  0  0  0  0  0  0
   -1.4641   -0.4326    0.0000 C   0  0  0  0  0  0  0  0  0  0  0  0
    0.0350   -1.9252    0.0000 C   0  0  0  0  0  0  0  0  0  0  0  0
   -1.4641   -2.0828    0.0000 C   0  0  0  0  0  0  0  0  0  0  0  0
   -2.1786   -0.8452    0.0000 C   0  0  0  0  0  0  0  0  0  0  0  0
    0.2900   -2.7099    0.0000 O   0  0  0  0  0  0  0  0  0  0  0  0
   -2.1786   -1.6702    0.0000 C   0  0  0  0  0  0  0  0  0  0  0  0
    0.0350   -0.5902    0.0000 C   0  0  3  0  0  0  0  0  0  0  0  0
    1.5045   -1.2577    0.0000 H   0  0  0  0  0  0  0  0  0  0  0  0
    1.5855   -0.4560    0.0000 H   0  0  0  0  0  0  0  0  0  0  0  0
  1  4  1  0  0  0  0
  1  5  2  0  0  0  0
  2  6  1  0  0  0  0
  2 12  1  0  0  0  0
  3 13  1  0  0  0  0
  4  7  2  0  0  0  0
  4  6  1  0  0  0  0
  5  8  1  0  0  0  0
  6  9  2  0  0  0  0
  7 10  1  0  0  0  0
  8 10  2  0  0  0  0
 11  1  1  0  0  0  0
 11  2  1  0  0  0  0
 11  3  1  0  0  0  0
M  END
$$$$
N/C=C\1/NC(=O)CNC(=O)CNC(=O)[C@H](CNC(=O)CNC1=O)N
 OpenBabel07182308452D

 33 33  0  0  0  0  0  0  0  0999 V2000
   -6.9489    2.7982    0.0000 O   0  0  0  0  0  0  0  0  0  0  0  0
   -4.0911    1.9732    0.0000 O   0  0  0  0  0  0  0  0  0  0  0  0
   -4.0911    5.2733    0.0000 O   0  0  0  0  0  0  0  0  0  0  0  0
   -1.9476    4.0358    0.0000 O   0  0  0  0  0  0  0  0  0  0  0  0
   -2.6621    6.9233    0.0000 O   0  0  0  0  0  0  0  0  0  0  0  0
   -4.8055    3.2107    0.0000 N   0  0  0  0  0  0  0  0  0  0  0  0
   -6.2345    4.0358    0.0000 N   0  0  0  0  0  0  0  0  0  0  0  0
   -3.3766    4.0358    0.0000 N   0  0  0  0  0  0  0  0  0  0  0  0
   -4.8055    6.5107    0.0000 N   0  0  0  0  0  0  0  0  0  0  0  0
   -6.2345    5.6857    0.0000 N   0  0  0  0  0  0  0  0  0  0  0  0
   -3.3766    5.6857    0.0000 N   0  0  0  0  0  0  0  0  0  0  0  0
   -2.6621    1.9732    0.0000 N   0  0  0  0  0  0  0  0  0  0  0  0
   -5.5199    2.7982    0.0000 C   0  0  0  0  0  0  0  0  0  0  0  0
   -6.2345    3.2107    0.0000 C   0  0  0  0  0  0  0  0  0  0  0  0
   -5.5199    4.4483    0.0000 C   0  0  0  0  0  0  0  0  0  0  0  0
   -4.0911    2.7982    0.0000 C   0  0  0  0  0  0  0  0  0  0  0  0
   -5.5199    5.2733    0.0000 C   0  0  1  0  0  0  0  0  0  0  0  0
   -3.3766    3.2107    0.0000 C   0  0  0  0  0  0  0  0  0  0  0  0
   -2.6621    5.2733    0.0000 C   0  0  0  0  0  0  0  0  0  0  0  0
   -4.8055    5.6857    0.0000 C   0  0  0  0  0  0  0  0  0  0  0  0
   -4.0911    6.9233    0.0000 C   0  0  0  0  0  0  0  0  0  0  0  0
   -2.6621    4.4483    0.0000 C   0  0  0  0  0  0  0  0  0  0  0  0
   -3.3766    6.5107    0.0000 C   0  0  0  0  0  0  0  0  0  0  0  0
   -2.6621    2.7982    0.0000 C   0  0  0  0  0  0  0  0  0  0  0  0
   -4.8055    2.3857    0.0000 H   0  0  0  0  0  0  0  0  0  0  0  0
   -4.8055    4.1952    0.0000 H   0  0  0  0  0  0  0  0  0  0  0  0
   -7.0871    4.5281    0.0000 H   0  0  0  0  0  0  0  0  0  0  0  0
   -4.2292    4.5281    0.0000 H   0  0  0  0  0  0  0  0  0  0  0  0
   -5.6581    7.0029    0.0000 H   0  0  0  0  0  0  0  0  0  0  0  0
   -6.2347    6.7057    0.0000 H   0  0  0  0  0  0  0  0  0  0  0  0
   -7.1178    5.1755    0.0000 H   0  0  0  0  0  0  0  0  0  0  0  0
   -4.2292    5.1934    0.0000 H   0  0  0  0  0  0  0  0  0  0  0  0
   -3.5147    1.4809    0.0000 H   0  0  0  0  0  0  0  0  0  0  0  0
  1 14  2  0  0  0  0
  2 16  2  0  0  0  0
  3 20  2  0  0  0  0
  4 22  2  0  0  0  0
  5 23  2  0  0  0  0
  6 13  1  0  0  0  0
  6 16  1  0  0  0  0
  6 26  1  0  0  0  0
  7 14  1  0  0  0  0
  7 15  1  0  0  0  0
  7 27  1  0  0  0  0
  8 18  1  0  0  0  0
  8 22  1  0  0  0  0
  8 28  1  0  0  0  0
  9 20  1  0  0  0  0
  9 21  1  0  0  0  0
  9 29  1  0  0  0  0
 10 30  1  0  0  0  0
 10 31  1  0  0  0  0
 11 19  1  0  0  0  0
 11 23  1  0  0  0  0
 11 32  1  0  0  0  0
 12 24  1  0  0  0  0
 12 33  1  0  0  0  0
 13 14  1  0  0  0  0
 13 25  1  0  0  0  0
 15 17  1  0  0  0  0
 16 18  1  0  0  0  0
 17 10  1  6  0  0  0
 17 20  1  0  0  0  0
 18 24  2  0  0  0  0
 19 22  1  0  0  0  0
 21 23  1  0  0  0  0
M  END
$$$$
N/C=C\1/NC(=O)CNC(=O)[C@H](C)NC(=O)[C@H](CNC(=O)CNC1=O)N
 OpenBabel07182308452D

 34 34  0  0  0  0  0  0  0  0999 V2000
   -3.7680   -5.6858    0.0000 O   0  0  0  0  0  0  0  0  0  0  0  0
   -0.9101   -6.5108    0.0000 O   0  0  0  0  0  0  0  0  0  0  0  0
   -0.9101   -3.2108    0.0000 O   0  0  0  0  0  0  0  0  0  0  0  0
    1.2332   -4.4483    0.0000 O   0  0  0  0  0  0  0  0  0  0  0  0
    0.5188   -1.5608    0.0000 O   0  0  0  0  0  0  0  0  0  0  0  0
   -1.6246   -5.2733    0.0000 N   0  0  0  0  0  0  0  0  0  0  0  0
   -3.0536   -4.4483    0.0000 N   0  0  0  0  0  0  0  0  0  0  0  0
   -0.1956   -4.4483    0.0000 N   0  0  0  0  0  0  0  0  0  0  0  0
   -1.6246   -1.9733    0.0000 N   0  0  0  0  0  0  0  0  0  0  0  0
   -3.0536   -2.7983    0.0000 N   0  0  0  0  0  0  0  0  0  0  0  0
   -0.1956   -2.7983    0.0000 N   0  0  0  0  0  0  0  0  0  0  0  0
    0.5188   -6.5108    0.0000 N   0  0  0  0  0  0  0  0  0  0  0  0
   -2.3390   -5.6858    0.0000 C   0  0  0  0  0  0  0  0  0  0  0  0
   -3.0536   -5.2733    0.0000 C   0  0  0  0  0  0  0  0  0  0  0  0
   -2.3390   -4.0358    0.0000 C   0  0  0  0  0  0  0  0  0  0  0  0
   -0.9101   -5.6858    0.0000 C   0  0  0  0  0  0  0  0  0  0  0  0
   -2.3390   -3.2108    0.0000 C   0  0  1  0  0  0  0  0  0  0  0  0
   -0.1956   -5.2733    0.0000 C   0  0  0  0  0  0  0  0  0  0  0  0
    0.5188   -3.2108    0.0000 C   0  0  0  0  0  0  0  0  0  0  0  0
   -1.6246   -2.7983    0.0000 C   0  0  0  0  0  0  0  0  0  0  0  0
   -0.9101   -1.5608    0.0000 C   0  0  2  0  0  0  0  0  0  0  0  0
    0.5188   -4.0358    0.0000 C   0  0  0  0  0  0  0  0  0  0  0  0
   -0.1956   -1.9733    0.0000 C   0  0  0  0  0  0  0  0  0  0  0  0
    0.5188   -5.6858    0.0000 C   0  0  0  0  0  0  0  0  0  0  0  0
   -0.9101   -0.7358    0.0000 C   0  0  0  0  0  0  0  0  0  0  0  0
   -1.6246   -6.0983    0.0000 H   0  0  0  0  0  0  0  0  0  0  0  0
   -1.6246   -4.2888    0.0000 H   0  0  0  0  0  0  0  0  0  0  0  0
   -3.9062   -3.9560    0.0000 H   0  0  0  0  0  0  0  0  0  0  0  0
   -1.0482   -3.9561    0.0000 H   0  0  0  0  0  0  0  0  0  0  0  0
   -2.4772   -1.4810    0.0000 H   0  0  0  0  0  0  0  0  0  0  0  0
   -3.0537   -1.7783    0.0000 H   0  0  0  0  0  0  0  0  0  0  0  0
   -3.9369   -3.3084    0.0000 H   0  0  0  0  0  0  0  0  0  0  0  0
   -1.0482   -3.2905    0.0000 H   0  0  0  0  0  0  0  0  0  0  0  0
   -0.3338   -7.0030    0.0000 H   0  0  0  0  0  0  0  0  0  0  0  0
  1 14  2  0  0  0  0
  2 16  2  0  0  0  0
  3 20  2  0  0  0  0
  4 22  2  0  0  0  0
  5 23  2  0  0  0  0
  6 13  1  0  0  0  0
  6 16  1  0  0  0  0
  6 27  1  0  0  0  0
  7 14  1  0  0  0  0
  7 15  1  0  0  0  0
  7 28  1  0  0  0  0
  8 18  1  0  0  0  0
  8 22  1  0  0  0  0
  8 29  1  0  0  0  0
  9 20  1  0  0  0  0
  9 21  1  0  0  0  0
  9 30  1  0  0  0  0
 10 31  1  0  0  0  0
 10 32  1  0  0  0  0
 11 19  1  0  0  0  0
 11 23  1  0  0  0  0
 11 33  1  0  0  0  0
 12 24  1  0  0  0  0
 12 34  1  0  0  0  0
 13 14  1  0  0  0  0
 13 26  1  0  0  0  0
 15 17  1  0  0  0  0
 16 18  1  0  0  0  0
 17 10  1  6  0  0  0
 17 20  1  0  0  0  0
 18 24  2  0  0  0  0
 19 22  1  0  0  0  0
 21 23  1  0  0  0  0
 21 25  1  1  0  0  0
M  END
$$$$
NC1=NCCCN1
 OpenBabel07182308452D

 11 11  0  0  0  0  0  0  0  0999 V2000
   -6.2345    1.5607    0.0000 N   0  0  0  0  0  0  0  0  0  0  0  0
   -5.5199    0.3232    0.0000 N   0  0  0  0  0  0  0  0  0  0  0  0
   -6.9489    0.3232    0.0000 N   0  0  0  0  0  0  0  0  0  0  0  0
   -5.5199    1.9732    0.0000 C   0  0  0  0  0  0  0  0  0  0  0  0
   -4.8055    1.5607    0.0000 C   0  0  0  0  0  0  0  0  0  0  0  0
   -4.8055    0.7358    0.0000 C   0  0  0  0  0  0  0  0  0  0  0  0
   -6.2345    0.7358    0.0000 C   0  0  0  0  0  0  0  0  0  0  0  0
   -6.2345    2.3857    0.0000 H   0  0  0  0  0  0  0  0  0  0  0  0
   -7.0871    2.0530    0.0000 H   0  0  0  0  0  0  0  0  0  0  0  0
   -7.8016    0.8153    0.0000 H   0  0  0  0  0  0  0  0  0  0  0  0
   -6.9488   -0.6613    0.0000 H   0  0  0  0  0  0  0  0  0  0  0  0
  1  4  1  0  0  0  0
  1  7  1  0  0  0  0
  1  9  1  0  0  0  0
  2  6  1  0  0  0  0
  2  7  2  0  0  0  0
  3  7  1  0  0  0  0
  3 10  1  0  0  0  0
  3 11  1  0  0  0  0
  4  5  1  0  0  0  0
  4  8  1  0  0  0  0
  5  6  1  0  0  0  0
M  END
$$$$
O=C1NCCO1
 OpenBabel07182308452D

  7  7  0  0  1  0  0  0  0  0999 V2000
   -2.1434   -0.4125    0.0000 C   0  0  0  0  0  0  0  0  0  0  0  0
   -2.8108   -0.8974    0.0000 N   0  0  0  0  0  0  0  0  0  0  0  0
   -3.4783   -0.4126    0.0000 C   0  0  0  0  0  0  0  0  0  0  0  0
   -3.2233    0.3720    0.0000 O   0  0  0  0  0  0  0  0  0  0  0  0
   -4.2629   -0.6675    0.0000 O   0  0  0  0  0  0  0  0  0  0  0  0
   -2.3983    0.3720    0.0000 C   0  0  0  0  0  0  0  0  0  0  0  0
   -2.8107   -1.8819    0.0000 H   0  0  0  0  0  0  0  0  0  0  0  0
  1  2  1  0  0  0  0
  1  6  1  0  0  0  0
  2  3  1  0  0  0  0
  2  7  1  0  0  0  0
  3  5  2  0  0  0  0
  3  4  1  0  0  0  0
  6  4  1  0  0  0  0
M  END
$$$$
CN1CCOCC1
 OpenBabel07182308452D

  7  7  0  0  0  0  0  0  0  0999 V2000
    1.6500   -0.3901    0.0000 O   0  0  0  0  0  0  0  0  0  0  0  0
    3.0791    0.4349    0.0000 N   0  0  0  0  0  0  0  0  0  0  0  0
    3.7935    0.8475    0.0000 C   0  0  0  0  0  0  0  0  0  0  0  0
    2.3645    0.8475    0.0000 C   0  0  0  0  0  0  0  0  0  0  0  0
    3.0791   -0.3901    0.0000 C   0  0  0  0  0  0  0  0  0  0  0  0
    1.6500    0.4349    0.0000 C   0  0  0  0  0  0  0  0  0  0  0  0
    2.3645   -0.8026    0.0000 C   0  0  0  0  0  0  0  0  0  0  0  0
  1  6  1  0  0  0  0
  1  7  1  0  0  0  0
  2  3  1  0  0  0  0
  2  4  1  0  0  0  0
  2  5  1  0  0  0  0
  4  6  1  0  0  0  0
  5  7  1  0  0  0  0
M  END
$$$$
Nc1ncnc2c1cccc2
 OpenBabel07182308452D

 12 13  0  0  0  0  0  0  0  0999 V2000
    8.8084   -0.4186    0.0000 N   0  0  0  0  0  0  0  0  0  0  0  0
    8.8180    2.1136    0.0000 N   0  0  0  0  0  0  0  0  0  0  0  0
    9.5654    0.8303    0.0000 N   0  0  0  0  0  0  0  0  0  0  0  0
    6.6515    0.8475    0.0000 C   0  0  0  0  0  0  0  0  0  0  0  0
    8.0804    0.8475    0.0000 C   0  0  0  0  0  0  0  0  0  0  0  0
    7.3659    0.4349    0.0000 C   0  0  0  0  0  0  0  0  0  0  0  0
    6.6515    1.6725    0.0000 C   0  0  0  0  0  0  0  0  0  0  0  0
    8.0804    1.6725    0.0000 C   0  0  0  0  0  0  0  0  0  0  0  0
    7.3659    2.0850    0.0000 C   0  0  0  0  0  0  0  0  0  0  0  0
    8.8180    0.4063    0.0000 C   0  0  0  0  0  0  0  0  0  0  0  0
    9.5654    1.6896    0.0000 C   0  0  0  0  0  0  0  0  0  0  0  0
    7.9501   -0.9009    0.0000 H   0  0  0  0  0  0  0  0  0  0  0  0
  1 10  1  0  0  0  0
  1 12  1  0  0  0  0
  2  8  1  0  0  0  0
  2 11  2  0  0  0  0
  3 10  2  0  0  0  0
  3 11  1  0  0  0  0
  4  6  1  0  0  0  0
  4  7  2  0  0  0  0
  5  6  2  0  0  0  0
  5  8  1  0  0  0  0
  5 10  1  0  0  0  0
  7  9  1  0  0  0  0
  8  9  2  0  0  0  0
M  END
$$$$
Fc1ccccc1Cl
 OpenBabel07182308452D

  8  8  0  0  0  0  0  0  0  0999 V2000
   10.2087   -2.9100    0.0000 Cl  0  0  0  0  0  0  0  0  0  0  0  0
   11.6471   -2.1016    0.0000 F   0  0  0  0  0  0  0  0  0  0  0  0
    9.5181   -0.8394    0.0000 C   0  0  0  0  0  0  0  0  0  0  0  0
    9.5085   -1.6643    0.0000 C   0  0  0  0  0  0  0  0  0  0  0  0
   10.2372   -0.4351    0.0000 C   0  0  0  0  0  0  0  0  0  0  0  0
   10.2182   -2.0851    0.0000 C   0  0  0  0  0  0  0  0  0  0  0  0
   10.9469   -0.8559    0.0000 C   0  0  0  0  0  0  0  0  0  0  0  0
   10.9374   -1.6808    0.0000 C   0  0  0  0  0  0  0  0  0  0  0  0
  1  6  1  0  0  0  0
  2  8  1  0  0  0  0
  3  4  2  0  0  0  0
  3  5  1  0  0  0  0
  4  6  1  0  0  0  0
  5  7  2  0  0  0  0
  6  8  2  0  0  0  0
  7  8  1  0  0  0  0
M  END
$$$$
CN1CC[C@@]23[C@@H]4[C@H]1Cc1c3c(O[C@H]2[C@H](C=C4)O)ccc1
 OpenBabel07182308452D

 22 26  0  0  0  0  0  0  0  0999 V2000
   -0.3917   -0.4145    0.0000 C   0  0  2  0  0  0  0  0  0  0  0  0
   -0.3952    0.4076    0.0000 C   0  0  0  0  0  0  0  0  0  0  0  0
    0.3139   -0.8309    0.0000 C   0  0  2  0  0  0  0  0  0  0  0  0
   -1.1115   -0.8203    0.0000 C   0  0  1  0  0  0  0  0  0  0  0  0
    0.3139    0.0053    0.0000 C   0  0  0  0  0  0  0  0  0  0  0  0
   -1.1115    0.8170    0.0000 C   0  0  0  0  0  0  0  0  0  0  0  0
    0.3174    0.8170    0.0000 C   0  0  0  0  0  0  0  0  0  0  0  0
    1.0302   -0.4216    0.0000 C   0  0  1  0  0  0  0  0  0  0  0  0
    0.3105   -1.6530    0.0000 C   0  0  0  0  0  0  0  0  0  0  0  0
   -1.9301    0.0546    0.0000 O   0  0  0  0  0  0  0  0  0  0  0  0
   -1.1151   -1.6426    0.0000 C   0  0  2  0  0  0  0  0  0  0  0  0
    1.7397   -0.0087    0.0000 C   0  0  0  0  0  0  0  0  0  0  0  0
   -1.1115    1.6462    0.0000 C   0  0  0  0  0  0  0  0  0  0  0  0
    1.0338    0.4040    0.0000 C   0  0  0  0  0  0  0  0  0  0  0  0
    0.3174    1.6462    0.0000 C   0  0  0  0  0  0  0  0  0  0  0  0
    1.7466   -0.8380    0.0000 N   0  0  0  0  0  0  0  0  0  0  0  0
   -0.4057   -2.0590    0.0000 C   0  0  0  0  0  0  0  0  0  0  0  0
   -1.8349   -2.0554    0.0000 O   0  0  0  0  0  0  0  0  0  0  0  0
   -0.3917    2.0590    0.0000 C   0  0  0  0  0  0  0  0  0  0  0  0
    2.5442   -0.6192    0.0000 C   0  0  0  0  0  0  0  0  0  0  0  0
    1.1009   -1.3991    0.0000 H   0  0  0  0  0  0  0  0  0  0  0  0
   -2.6735   -1.5680    0.0000 H   0  0  0  0  0  0  0  0  0  0  0  0
  1  2  1  0  0  0  0
  1  3  1  6  0  0  0
  1  5  1  0  0  0  0
  2  6  2  0  0  0  0
  2  7  1  0  0  0  0
  3  9  1  0  0  0  0
  3 21  1  1  0  0  0
  4  1  1  6  0  0  0
  4 10  1  0  0  0  0
  4 11  1  0  0  0  0
  5 12  1  0  0  0  0
  6 13  1  0  0  0  0
  6 10  1  0  0  0  0
  7 14  1  0  0  0  0
  7 15  2  0  0  0  0
  8  3  1  1  0  0  0
  8 16  1  0  0  0  0
  8 14  1  0  0  0  0
  9 17  2  0  0  0  0
 11 18  1  6  0  0  0
 11 17  1  0  0  0  0
 12 16  1  0  0  0  0
 13 19  2  0  0  0  0
 15 19  1  0  0  0  0
 16 20  1  0  0  0  0
 18 22  1  0  0  0  0
M  END
$$$$
O=C1NCCNC1=O
 OpenBabel07182308452D

  8  8  0  0  1  0  0  0  0  0999 V2000
    9.3344   -6.0178    0.0000 N   0  0  0  0  0  0  0  0  0  0  0  0
    8.6199   -5.6053    0.0000 C   0  0  0  0  0  0  0  0  0  0  0  0
    7.9054   -6.0178    0.0000 C   0  0  0  0  0  0  0  0  0  0  0  0
    7.9054   -6.8428    0.0000 N   0  0  0  0  0  0  0  0  0  0  0  0
    8.6199   -7.2553    0.0000 C   0  0  0  0  0  0  0  0  0  0  0  0
    9.3344   -6.8428    0.0000 C   0  0  0  0  0  0  0  0  0  0  0  0
    8.6199   -4.7803    0.0000 O   0  0  0  0  0  0  0  0  0  0  0  0
    7.1910   -5.6053    0.0000 O   0  0  0  0  0  0  0  0  0  0  0  0
  2  1  1  0  0  0  0
  2  3  1  0  0  0  0
  2  7  2  0  0  0  0
  3  4  1  0  0  0  0
  3  8  2  0  0  0  0
  4  5  1  0  0  0  0
  5  6  1  0  0  0  0
  6  1  1  0  0  0  0
M  END
$$$$
C[C@H]1O[C@@]2(N(C1=O)[C@@H](C)C(=O)N1[C@H]2CCC1)O
 OpenBabel07182308452D

 19 21  0  0  1  0  0  0  0  0999 V2000
   -0.3534    0.4167    0.0000 C   0  0  2  0  0  0  0  0  0  0  0  0
   -0.8488    1.0830    0.0000 C   0  0  0  0  0  0  0  0  0  0  0  0
   -0.8362   -0.2550    0.0000 O   0  0  0  0  0  0  0  0  0  0  0  0
   -1.6252   -0.0070    0.0000 C   0  0  2  0  0  0  0  0  0  0  0  0
   -1.6287    0.8157    0.0000 N   0  0  0  0  0  0  0  0  0  0  0  0
   -2.3390    1.2218    0.0000 C   0  0  2  0  0  0  0  0  0  0  0  0
   -3.0504    0.8097    0.0000 C   0  0  0  0  0  0  0  0  0  0  0  0
   -2.3320   -0.4237    0.0000 C   0  0  1  0  0  0  0  0  0  0  0  0
   -3.0484   -0.0147    0.0000 N   0  0  0  0  0  0  0  0  0  0  0  0
   -3.6585   -0.5698    0.0000 C   0  0  0  0  0  0  0  0  0  0  0  0
   -3.3193   -1.3218    0.0000 C   0  0  0  0  0  0  0  0  0  0  0  0
   -2.4994   -1.2313    0.0000 C   0  0  0  0  0  0  0  0  0  0  0  0
   -1.6204   -0.8379    0.0000 O   0  0  0  0  0  0  0  0  0  0  0  0
   -2.3430    0.3997    0.0000 H   0  0  0  0  0  0  0  0  0  0  0  0
   -0.6037    1.8730    0.0000 O   0  0  0  0  0  0  0  0  0  0  0  0
   -3.7674    1.2218    0.0000 O   0  0  0  0  0  0  0  0  0  0  0  0
   -2.3413    2.0489    0.0000 C   0  0  0  0  0  0  0  0  0  0  0  0
    0.1617    0.9270    0.0000 C   0  0  0  0  0  0  0  0  0  0  0  0
   -2.4576   -1.3277    0.0000 H   0  0  0  0  0  0  0  0  0  0  0  0
  1  2  1  0  0  0  0
  1 18  1  1  0  0  0
  2  5  1  0  0  0  0
  2 15  2  0  0  0  0
  3  1  1  0  0  0  0
  4  3  1  0  0  0  0
  4  5  1  0  0  0  0
  4  8  1  1  0  0  0
  4 13  1  0  0  0  0
  5  6  1  0  0  0  0
  6  7  1  0  0  0  0
  6 17  1  6  0  0  0
  7  9  1  0  0  0  0
  7 16  2  0  0  0  0
  8  9  1  0  0  0  0
  8 14  1  1  0  0  0
  9 10  1  0  0  0  0
 10 11  1  0  0  0  0
 11 12  1  0  0  0  0
 12  8  1  0  0  0  0
 13 19  1  0  0  0  0
M  END
$$$$
CC=C1c2ccccc2CCc2c1cccc2
 OpenBabel07182308452D

 17 19  0  0  0  0  0  0  0  0999 V2000
    3.6160    2.5536    0.0000 C   0  0  0  0  0  0  0  0  0  0  0  0
    4.4410    2.5536    0.0000 C   0  0  0  0  0  0  0  0  0  0  0  0
    4.0285    0.7464    0.0000 C   0  0  0  0  0  0  0  0  0  0  0  0
    3.1016    1.9086    0.0000 C   0  0  0  0  0  0  0  0  0  0  0  0
    4.9554    1.9086    0.0000 C   0  0  0  0  0  0  0  0  0  0  0  0
    3.2852    1.1043    0.0000 C   0  0  0  0  0  0  0  0  0  0  0  0
    4.7718    1.1043    0.0000 C   0  0  0  0  0  0  0  0  0  0  0  0
    4.0285   -0.0786    0.0000 C   0  0  0  0  0  0  0  0  0  0  0  0
    3.3140   -0.4911    0.0000 C   0  0  0  0  0  0  0  0  0  0  0  0
    2.2844    2.1745    0.0000 C   0  0  0  0  0  0  0  0  0  0  0  0
    5.7725    2.1745    0.0000 C   0  0  0  0  0  0  0  0  0  0  0  0
    2.6643    0.5102    0.0000 C   0  0  0  0  0  0  0  0  0  0  0  0
    5.3926    0.5102    0.0000 C   0  0  0  0  0  0  0  0  0  0  0  0
    1.6500    1.5950    0.0000 C   0  0  0  0  0  0  0  0  0  0  0  0
    6.4070    1.5949    0.0000 C   0  0  0  0  0  0  0  0  0  0  0  0
    1.8412    0.7571    0.0000 C   0  0  0  0  0  0  0  0  0  0  0  0
    6.2157    0.7571    0.0000 C   0  0  0  0  0  0  0  0  0  0  0  0
  1  2  1  0  0  0  0
  1  4  1  0  0  0  0
  2  5  1  0  0  0  0
  3  6  1  0  0  0  0
  3  7  1  0  0  0  0
  3  8  2  0  0  0  0
  4  6  1  0  0  0  0
  4 10  2  0  0  0  0
  5  7  1  0  0  0  0
  5 11  2  0  0  0  0
  6 12  2  0  0  0  0
  7 13  2  0  0  0  0
  8  9  1  0  0  0  0
 10 14  1  0  0  0  0
 11 15  1  0  0  0  0
 12 16  1  0  0  0  0
 13 17  1  0  0  0  0
 14 16  2  0  0  0  0
 15 17  2  0  0  0  0
M  END
$$$$
Fc1c[nH]c(=O)[nH]c1=O
 OpenBabel07182308452D

 10 10  0  0  1  0  0  0  0  0999 V2000
    4.5079    1.9573    0.0000 F   0  0  0  0  0  0  0  0  0  0  0  0
    1.6500    0.3073    0.0000 O   0  0  0  0  0  0  0  0  0  0  0  0
    3.0790    2.7823    0.0000 O   0  0  0  0  0  0  0  0  0  0  0  0
    3.0790    0.3073    0.0000 N   0  0  0  0  0  0  0  0  0  0  0  0
    2.3645    1.5448    0.0000 N   0  0  0  0  0  0  0  0  0  0  0  0
    2.3645    0.7198    0.0000 C   0  0  0  0  0  0  0  0  0  0  0  0
    3.7935    0.7198    0.0000 C   0  0  0  0  0  0  0  0  0  0  0  0
    3.7935    1.5448    0.0000 C   0  0  0  0  0  0  0  0  0  0  0  0
    3.0790    1.9573    0.0000 C   0  0  0  0  0  0  0  0  0  0  0  0
    1.5119    2.0371    0.0000 H   0  0  0  0  0  0  0  0  0  0  0  0
  1  8  1  0  0  0  0
  2  6  2  0  0  0  0
  3  9  2  0  0  0  0
  4  6  1  0  0  0  0
  4  7  1  0  0  0  0
  5  6  1  0  0  0  0
  5  9  1  0  0  0  0
  5 10  1  0  0  0  0
  7  8  2  0  0  0  0
  8  9  1  0  0  0  0
M  END
$$$$
[O-][NH+]=O
 OpenBabel07182308452D

  3  2  0  0  0  0  0  0  0  0999 V2000
    4.2365    3.0938    0.0000 O   0  5  0  0  0  0  0  0  0  0  0  0
    2.8075    3.0938    0.0000 O   0  0  0  0  0  0  0  0  0  0  0  0
    3.5220    2.6813    0.0000 N   0  3  0  0  0  0  0  0  0  0  0  0
  1  3  1  0  0  0  0
  2  3  2  0  0  0  0
M  CHG  2   1  -1   3   1
M  END
$$$$
O=C1C=C[C@]2(C(=C1)[C@@H](C)C[C@@H]1[C@]2(F)[C@@H](O)C[C@]2([C@H]1CC[C@H]2O)C)C
 OpenBabel07182308452D

 28 31  0  0  1  0  0  0  0  0999 V2000
    4.1400    0.7077    0.0000 F   0  0  0  0  0  0  0  0  0  0  0  0
    6.6263    1.9371    0.0000 O   0  0  0  0  0  0  0  0  0  0  0  0
    3.9559    1.3132    0.0000 O   0  0  0  0  0  0  0  0  0  0  0  0
    1.6500   -1.6175    0.0000 O   0  0  0  0  0  0  0  0  0  0  0  0
    6.0993    0.9007    0.0000 C   0  0  1  0  0  0  0  0  0  0  0  0
    6.0993    0.0757    0.0000 C   0  0  2  0  0  0  0  0  0  0  0  0
    5.3849   -0.3368    0.0000 C   0  0  1  0  0  0  0  0  0  0  0  0
    4.6703    0.0757    0.0000 C   0  0  1  0  0  0  0  0  0  0  0  0
    6.8799    1.1521    0.0000 C   0  0  1  0  0  0  0  0  0  0  0  0
    5.3849    1.3132    0.0000 C   0  0  0  0  0  0  0  0  0  0  0  0
    4.6703    0.9007    0.0000 C   0  0  2  0  0  0  0  0  0  0  0  0
    6.8799   -0.1757    0.0000 C   0  0  0  0  0  0  0  0  0  0  0  0
    3.9196   -0.3425    0.0000 C   0  0  1  0  0  0  0  0  0  0  0  0
    7.3614    0.4882    0.0000 C   0  0  0  0  0  0  0  0  0  0  0  0
    5.3981   -1.1961    0.0000 C   0  0  0  0  0  0  0  0  0  0  0  0
    4.6572   -1.6314    0.0000 C   0  0  1  0  0  0  0  0  0  0  0  0
    6.0993    1.7257    0.0000 C   0  0  0  0  0  0  0  0  0  0  0  0
    3.9130   -1.2018    0.0000 C   0  0  0  0  0  0  0  0  0  0  0  0
    3.6434    0.4349    0.0000 C   0  0  0  0  0  0  0  0  0  0  0  0
    3.1550    0.1229    0.0000 C   0  0  0  0  0  0  0  0  0  0  0  0
    4.6603   -2.4564    0.0000 C   0  0  0  0  0  0  0  0  0  0  0  0
    3.1413   -1.6554    0.0000 C   0  0  0  0  0  0  0  0  0  0  0  0
    2.3729   -0.3127    0.0000 C   0  0  0  0  0  0  0  0  0  0  0  0
    2.3660   -1.2078    0.0000 C   0  0  0  0  0  0  0  0  0  0  0  0
    6.1691   -0.5806    0.0000 H   0  0  0  0  0  0  0  0  0  0  0  0
    5.9589   -0.6624    0.0000 H   0  0  0  0  0  0  0  0  0  0  0  0
    7.2766    2.6569    0.0000 H   0  0  0  0  0  0  0  0  0  0  0  0
    3.9559    2.2832    0.0000 H   0  0  0  0  0  0  0  0  0  0  0  0
  2 27  1  0  0  0  0
  3 28  1  0  0  0  0
  4 24  2  0  0  0  0
  5  6  1  1  0  0  0
  5 10  1  0  0  0  0
  5 17  1  0  0  0  0
  6  7  1  1  0  0  0
  6 12  1  0  0  0  0
  6 25  1  0  0  0  0
  7  8  1  1  0  0  0
  7 15  1  0  0  0  0
  7 26  1  0  0  0  0
  8  1  1  0  0  0  0
  8 13  1  1  0  0  0
  9  2  1  0  0  0  0
  9  5  1  6  0  0  0
  9 14  1  0  0  0  0
 10 11  1  0  0  0  0
 11  3  1  0  0  0  0
 11  8  1  1  0  0  0
 12 14  1  0  0  0  0
 13 18  1  0  0  0  0
 13 19  1  1  0  0  0
 13 20  1  0  0  0  0
 15 16  1  0  0  0  0
 16 18  1  0  0  0  0
 16 21  1  6  0  0  0
 18 22  2  0  0  0  0
 20 23  2  0  0  0  0
 22 24  1  0  0  0  0
 23 24  1  0  0  0  0
M  END
$$$$
O=N[Fe-2](C#N)(C#N)(C#N)(C#N)C#N
 OpenBabel07182308452D

 13 12  0  0  0  0  0  0  0  0999 V2000
    0.0000   -1.6500    0.0000 N   0  0  0  0  0  0  0  0  0  0  0  0
    0.7161    0.4125    0.0000 C   0  0  0  0  0  0  0  0  0  0  0  0
    0.0000   -0.8250    0.0000 C   0  0  0  0  0  0  0  0  0  0  0  0
   -0.7161    0.4125    0.0000 C   0  0  0  0  0  0  0  0  0  0  0  0
    1.4289    0.8250    0.0000 N   0  0  0  0  0  0  0  0  0  0  0  0
   -1.4289    0.8250    0.0000 N   0  0  0  0  0  0  0  0  0  0  0  0
    0.0000    0.0000    0.0000 Fe  0  6  0  0  0  0  0  0  0  0  0  0
    0.7161   -0.4124    0.0000 C   0  0  0  0  0  0  0  0  0  0  0  0
    1.4289   -0.8250    0.0000 N   0  0  0  0  0  0  0  0  0  0  0  0
   -0.7161   -0.4124    0.0000 C   0  0  0  0  0  0  0  0  0  0  0  0
   -1.4289   -0.8250    0.0000 N   0  0  0  0  0  0  0  0  0  0  0  0
    0.0000    0.8250    0.0000 N   0  0  0  0  0  0  0  0  0  0  0  0
    0.0000    1.6500    0.0000 O   0  0  0  0  0  0  0  0  0  0  0  0
  1  3  3  0  0  0  0
  2  7  1  0  0  0  0
  2  5  3  0  0  0  0
  3  7  1  0  0  0  0
  4  7  1  0  0  0  0
  4  6  3  0  0  0  0
  7 12  1  0  0  0  0
  7  8  1  0  0  0  0
  7 10  1  0  0  0  0
  8  9  3  0  0  0  0
 10 11  3  0  0  0  0
 12 13  2  0  0  0  0
M  CHG  1   7  -2
M  END
$$$$
O=C1CC[C@@H]2[C@@]34[C@H]1Oc1c4c(C[C@H]2N(CC3)C)ccc1O
 OpenBabel07182308452D

 25 29  0  0  1  0  0  0  0  0999 V2000
    1.9356   -0.2231    0.0000 O   0  0  0  0  0  0  0  0  0  0  0  0
    1.7349   -2.3527    0.0000 O   0  0  0  0  0  0  0  0  0  0  0  0
    1.7349    1.8149    0.0000 O   0  0  0  0  0  0  0  0  0  0  0  0
    5.3440   -1.0939    0.0000 N   0  0  0  0  0  0  0  0  0  0  0  0
    3.2006   -0.6814    0.0000 C   0  0  1  0  0  0  0  0  0  0  0  0
    3.9151   -1.0939    0.0000 C   0  0  2  0  0  0  0  0  0  0  0  0
    4.6296   -0.6814    0.0000 C   0  0  1  0  0  0  0  0  0  0  0  0
    2.4861   -1.0939    0.0000 C   0  0  2  0  0  0  0  0  0  0  0  0
    3.6773   -0.0764    0.0000 C   0  0  0  0  0  0  0  0  0  0  0  0
    3.2006    0.1436    0.0000 C   0  0  0  0  0  0  0  0  0  0  0  0
    3.9151   -1.9190    0.0000 C   0  0  0  0  0  0  0  0  0  0  0  0
    4.6296    0.1436    0.0000 C   0  0  0  0  0  0  0  0  0  0  0  0
    4.8506   -0.0764    0.0000 C   0  0  0  0  0  0  0  0  0  0  0  0
    3.9151    0.5561    0.0000 C   0  0  0  0  0  0  0  0  0  0  0  0
    3.2006   -2.3315    0.0000 C   0  0  0  0  0  0  0  0  0  0  0  0
    2.4861   -1.9190    0.0000 C   0  0  0  0  0  0  0  0  0  0  0  0
    2.4861    0.5561    0.0000 C   0  0  0  0  0  0  0  0  0  0  0  0
    5.9350   -1.7290    0.0000 C   0  0  0  0  0  0  0  0  0  0  0  0
    3.9151    1.3811    0.0000 C   0  0  0  0  0  0  0  0  0  0  0  0
    2.4861    1.3811    0.0000 C   0  0  0  0  0  0  0  0  0  0  0  0
    3.2006    1.7936    0.0000 C   0  0  0  0  0  0  0  0  0  0  0  0
    4.3612   -1.6255    0.0000 H   0  0  0  0  0  0  0  0  0  0  0  0
    4.8675   -1.3334    0.0000 H   0  0  0  0  0  0  0  0  0  0  0  0
    1.8196   -1.2870    0.0000 H   0  0  0  0  0  0  0  0  0  0  0  0
    1.7350    2.7519    0.0000 H   0  0  0  0  0  0  0  0  0  0  0  0
  1  8  1  0  0  0  0
  1 17  1  0  0  0  0
  2 16  2  0  0  0  0
  3 20  1  0  0  0  0
  3 25  1  0  0  0  0
  4  7  1  0  0  0  0
  4 13  1  0  0  0  0
  4 18  1  0  0  0  0
  5  6  1  6  0  0  0
  5  9  1  0  0  0  0
  5 10  1  0  0  0  0
  6  7  1  6  0  0  0
  6 11  1  0  0  0  0
  6 22  1  0  0  0  0
  7 12  1  0  0  0  0
  7 23  1  6  0  0  0
  8  5  1  1  0  0  0
  8 16  1  0  0  0  0
  8 24  1  0  0  0  0
  9 13  1  0  0  0  0
 10 14  2  0  0  0  0
 10 17  1  0  0  0  0
 11 15  1  0  0  0  0
 12 14  1  0  0  0  0
 14 19  1  0  0  0  0
 15 16  1  0  0  0  0
 17 20  2  0  0  0  0
 19 21  2  0  0  0  0
 20 21  1  0  0  0  0
M  END
$$$$
Cc1[nH]c2c(c1C)cccc2
 OpenBabel07182308452D

 11 12  0  0  0  0  0  0  0  0999 V2000
   -1.2606   -0.1558    0.0000 N   0  0  0  0  0  0  0  0  0  0  0  0
   -0.5069   -0.4913    0.0000 C   0  0  0  0  0  0  0  0  0  0  0  0
    0.0451    0.1216    0.0000 C   0  0  0  0  0  0  0  0  0  0  0  0
   -0.3673    0.8361    0.0000 C   0  0  0  0  0  0  0  0  0  0  0  0
   -1.1742    0.6646    0.0000 C   0  0  0  0  0  0  0  0  0  0  0  0
   -1.7873    1.2165    0.0000 C   0  0  0  0  0  0  0  0  0  0  0  0
   -0.0318    1.5898    0.0000 C   0  0  0  0  0  0  0  0  0  0  0  0
   -0.2519   -1.2760    0.0000 C   0  0  0  0  0  0  0  0  0  0  0  0
    0.5548   -1.4476    0.0000 C   0  0  0  0  0  0  0  0  0  0  0  0
    1.1070   -0.8346    0.0000 C   0  0  0  0  0  0  0  0  0  0  0  0
    0.8521   -0.0497    0.0000 C   0  0  0  0  0  0  0  0  0  0  0  0
  1  2  1  0  0  0  0
  1  5  1  0  0  0  0
  2  3  2  0  0  0  0
  2  8  1  0  0  0  0
  3  4  1  0  0  0  0
  4  5  2  0  0  0  0
  4  7  1  0  0  0  0
  5  6  1  0  0  0  0
  8  9  2  0  0  0  0
  9 10  1  0  0  0  0
 10 11  2  0  0  0  0
 11  3  1  0  0  0  0
M  END
$$$$
O[C@@H]1C[C@@H]2CC[C@H](C1)[NH+]2C
 OpenBabel07182308452D

 12 13  0  0  0  0  0  0  0  0999 V2000
    0.7842    0.1536    0.0000 O   0  0  0  0  0  0  0  0  0  0  0  0
   -1.2551    2.1103    0.0000 N   0  3  3  0  0  0  0  0  0  0  0  0
   -0.6945    1.6703    0.0000 C   0  0  1  0  0  0  0  0  0  0  0  0
   -1.1154    1.2972    0.0000 C   0  0  2  0  0  0  0  0  0  0  0  0
    0.3724    0.8685    0.0000 C   0  0  1  0  0  0  0  0  0  0  0  0
    0.2342    1.6858    0.0000 C   0  0  0  0  0  0  0  0  0  0  0  0
   -0.1437    1.2972    0.0000 C   0  0  0  0  0  0  0  0  0  0  0  0
   -1.0150    0.9617    0.0000 C   0  0  0  0  0  0  0  0  0  0  0  0
   -1.6353    0.5848    0.0000 C   0  0  0  0  0  0  0  0  0  0  0  0
   -2.0195    2.4206    0.0000 C   0  0  0  0  0  0  0  0  0  0  0  0
   -0.6624    0.4056    0.0000 H   0  0  0  0  0  0  0  0  0  0  0  0
   -0.1453    0.8346    0.0000 H   0  0  0  0  0  0  0  0  0  0  0  0
  2 10  1  0  0  0  0
  3  2  1  6  0  0  0
  3  6  1  0  0  0  0
  3  8  1  0  0  0  0
  3 12  1  0  0  0  0
  4  2  1  1  0  0  0
  4  7  1  0  0  0  0
  4  9  1  0  0  0  0
  4 11  1  0  0  0  0
  5  1  1  6  0  0  0
  5  6  1  0  0  0  0
  5  7  1  0  0  0  0
  8  9  1  0  0  0  0
M  CHG  1   2   1
M  END
$$$$
Cc1cc2c(s1)Nc1c(N=C2)cccc1
 OpenBabel07182308452D

 16 18  0  0  0  0  0  0  0  0999 V2000
    0.8062   -0.5677    0.0000 N   0  0  0  0  0  0  0  0  0  0  0  0
    1.6313   -0.5677    0.0000 C   0  0  0  0  0  0  0  0  0  0  0  0
    2.0438   -1.2822    0.0000 C   0  0  0  0  0  0  0  0  0  0  0  0
    0.3189   -1.8801    0.0000 C   0  0  0  0  0  0  0  0  0  0  0  0
    0.2229   -1.1511    0.0000 C   0  0  0  0  0  0  0  0  0  0  0  0
   -0.5510   -0.7464    0.0000 C   0  0  0  0  0  0  0  0  0  0  0  0
   -1.2055   -1.2487    0.0000 C   0  0  0  0  0  0  0  0  0  0  0  0
   -0.3356   -2.3824    0.0000 C   0  0  0  0  0  0  0  0  0  0  0  0
   -1.0978   -2.0666    0.0000 C   0  0  0  0  0  0  0  0  0  0  0  0
    1.0333   -2.2926    0.0000 N   0  0  0  0  0  0  0  0  0  0  0  0
    1.8302   -2.0791    0.0000 C   0  0  0  0  0  0  0  0  0  0  0  0
    2.8677   -1.2391    0.0000 C   0  0  0  0  0  0  0  0  0  0  0  0
    2.5221   -2.5285    0.0000 S   0  0  0  0  0  0  0  0  0  0  0  0
    3.1632   -2.0094    0.0000 C   0  0  0  0  0  0  0  0  0  0  0  0
    3.9601   -2.2229    0.0000 C   0  0  0  0  0  0  0  0  0  0  0  0
    0.9048   -3.2687    0.0000 H   0  0  0  0  0  0  0  0  0  0  0  0
  1  2  2  0  0  0  0
  1  5  1  0  0  0  0
  2  3  1  0  0  0  0
  3 11  2  0  0  0  0
  4  5  1  0  0  0  0
  6  5  2  0  0  0  0
  6  7  1  0  0  0  0
  7  9  2  0  0  0  0
  8  4  2  0  0  0  0
  9  8  1  0  0  0  0
 10  4  1  0  0  0  0
 10 16  1  0  0  0  0
 11 10  1  0  0  0  0
 11 13  1  0  0  0  0
 12  3  1  0  0  0  0
 12 14  2  0  0  0  0
 13 14  1  0  0  0  0
 14 15  1  0  0  0  0
M  END
$$$$
c1ccco1
 OpenBabel07182308452D

  5  5  0  0  0  0  0  0  0  0999 V2000
    3.7150   -0.6545    0.0000 O   0  0  0  0  0  0  0  0  0  0  0  0
    4.3824   -0.1696    0.0000 C   0  0  0  0  0  0  0  0  0  0  0  0
    4.1275    0.6150    0.0000 C   0  0  0  0  0  0  0  0  0  0  0  0
    3.0476   -0.1696    0.0000 C   0  0  0  0  0  0  0  0  0  0  0  0
    3.3025    0.6150    0.0000 C   0  0  0  0  0  0  0  0  0  0  0  0
  1  2  1  0  0  0  0
  1  4  1  0  0  0  0
  2  3  2  0  0  0  0
  3  5  1  0  0  0  0
  4  5  2  0  0  0  0
M  END
$$$$
NN=C
 OpenBabel07182308452D

  4  3  0  0  0  0  0  0  0  0999 V2000
    5.7801    0.1275    0.0000 N   0  0  0  0  0  0  0  0  0  0  0  0
    6.5647   -0.1275    0.0000 N   0  0  0  0  0  0  0  0  0  0  0  0
    5.1670   -0.4245    0.0000 C   0  0  0  0  0  0  0  0  0  0  0  0
    6.7694   -1.0905    0.0000 H   0  0  0  0  0  0  0  0  0  0  0  0
  1  2  1  0  0  0  0
  1  3  2  0  0  0  0
  2  4  1  0  0  0  0
M  END
$$$$
C[C@@H]1CC[C@@H]2CC[C@H]([C@](O2)(O)C(=O)C(=O)N2CCCC[C@H]2C(=O)OC[C@@H]([C@H](CC(=O)C/C=C(/C1)\C)O)C)C
 OpenBabel07182308452D

 43 45  0  0  0  0  0  0  0  0999 V2000
   -3.2107   -0.6552    0.0000 C   0  0  2  0  0  0  0  0  0  0  0  0
   -3.2107    0.1698    0.0000 C   0  0  0  0  0  0  0  0  0  0  0  0
   -2.4971    0.5824    0.0000 C   0  0  0  0  0  0  0  0  0  0  0  0
   -2.4971    1.4075    0.0000 N   0  0  0  0  0  0  0  0  0  0  0  0
   -2.4971   -1.0580    0.0000 O   0  0  0  0  0  0  0  0  0  0  0  0
   -0.3518    1.8250    0.0000 O   0  0  0  0  0  0  0  0  0  0  0  0
   -1.0653    1.4124    0.0000 C   0  0  0  0  0  0  0  0  0  0  0  0
    0.3615    1.4124    0.0000 C   0  0  0  0  0  0  0  0  0  0  0  0
   -2.5020   -1.8880    0.0000 C   0  0  1  0  0  0  0  0  0  0  0  0
   -1.7836    1.8201    0.0000 C   0  0  2  0  0  0  0  0  0  0  0  0
    0.3615    0.5873    0.0000 C   0  0  1  0  0  0  0  0  0  0  0  0
   -3.9291   -1.0629    0.0000 C   0  0  1  0  0  0  0  0  0  0  0  0
    1.7934   -1.0629    0.0000 C   0  0  0  0  0  0  0  0  0  0  0  0
    1.0750    0.1747    0.0000 C   0  0  2  0  0  0  0  0  0  0  0  0
    1.0750   -0.6503    0.0000 C   0  0  0  0  0  0  0  0  0  0  0  0
   -3.2156   -2.3007    0.0000 C   0  0  0  0  0  0  0  0  0  0  0  0
    1.0799   -2.3007    0.0000 C   0  0  0  0  0  0  0  0  0  0  0  0
   -1.9583   -2.8442    0.0000 C   0  0  0  0  0  0  0  0  0  0  0  0
    1.0799   -3.1258    0.0000 C   0  0  0  0  0  0  0  0  0  0  0  0
   -3.9291   -1.8832    0.0000 C   0  0  0  0  0  0  0  0  0  0  0  0
    1.7934   -1.8880    0.0000 C   0  0  0  0  0  0  0  0  0  0  0  0
   -3.9242    0.5824    0.0000 O   0  0  0  0  0  0  0  0  0  0  0  0
   -1.7789    0.1698    0.0000 O   0  0  0  0  0  0  0  0  0  0  0  0
   -1.0653    0.5873    0.0000 O   0  0  0  0  0  0  0  0  0  0  0  0
   -1.1332   -2.8442    0.0000 C   0  0  0  0  0  0  0  0  0  0  0  0
   -3.9291   -0.2378    0.0000 O   0  0  0  0  0  0  0  0  0  0  0  0
    2.5069   -0.6503    0.0000 O   0  0  0  0  0  0  0  0  0  0  0  0
    0.2353   -3.5578    0.0000 C   0  0  0  0  0  0  0  0  0  0  0  0
   -0.5897   -3.5578    0.0000 C   0  0  2  0  0  0  0  0  0  0  0  0
   -3.2107    1.8201    0.0000 C   0  0  0  0  0  0  0  0  0  0  0  0
    1.7934    0.5873    0.0000 O   0  0  0  0  0  0  0  0  0  0  0  0
   -0.3518    0.1747    0.0000 C   0  0  0  0  0  0  0  0  0  0  0  0
   -1.7836    2.6452    0.0000 C   0  0  0  0  0  0  0  0  0  0  0  0
   -4.6426   -0.6456    0.0000 C   0  0  0  0  0  0  0  0  0  0  0  0
    1.7934   -3.5383    0.0000 C   0  0  0  0  0  0  0  0  0  0  0  0
   -0.9585   -4.2955    0.0000 C   0  0  0  0  0  0  0  0  0  0  0  0
   -3.2107    2.6452    0.0000 C   0  0  0  0  0  0  0  0  0  0  0  0
   -2.4971    3.0578    0.0000 C   0  0  0  0  0  0  0  0  0  0  0  0
   -1.0701    2.2375    0.0000 H   0  0  0  0  0  0  0  0  0  0  0  0
   -1.6817   -1.8832    0.0000 H   0  0  0  0  0  0  0  0  0  0  0  0
   -0.3566    1.0047    0.0000 H   0  0  0  0  0  0  0  0  0  0  0  0
   -3.9264    0.7322    0.0000 H   0  0  0  0  0  0  0  0  0  0  0  0
    2.6323    0.1004    0.0000 H   0  0  0  0  0  0  0  0  0  0  0  0
  1 26  1  1  0  0  0
  2  1  1  0  0  0  0
  3  2  1  0  0  0  0
  4  3  1  0  0  0  0
  5  1  1  0  0  0  0
  6  7  1  0  0  0  0
  7 10  1  0  0  0  0
  8  6  1  0  0  0  0
  8 41  1  0  0  0  0
  9  5  1  0  0  0  0
  9 40  1  1  0  0  0
  9 16  1  0  0  0  0
 10  4  1  0  0  0  0
 10 39  1  6  0  0  0
 11  8  1  0  0  0  0
 11 32  1  1  0  0  0
 12  1  1  1  0  0  0
 12 34  1  0  0  0  0
 13 21  1  0  0  0  0
 13 15  1  0  0  0  0
 14 11  1  0  0  0  0
 14 31  1  1  0  0  0
 15 14  1  0  0  0  0
 16 20  1  0  0  0  0
 17 19  2  0  0  0  0
 18  9  1  0  0  0  0
 19 28  1  0  0  0  0
 20 12  1  0  0  0  0
 21 17  1  0  0  0  0
 22  2  2  0  0  0  0
 23  3  2  0  0  0  0
 24  7  2  0  0  0  0
 25 18  1  0  0  0  0
 26 42  1  0  0  0  0
 27 13  2  0  0  0  0
 28 29  1  0  0  0  0
 29 25  1  0  0  0  0
 29 36  1  6  0  0  0
 30  4  1  0  0  0  0
 31 43  1  0  0  0  0
 33 10  1  0  0  0  0
 35 19  1  0  0  0  0
 37 30  1  0  0  0  0
 38 33  1  0  0  0  0
 38 37  1  0  0  0  0
M  END
$$$$
ClC1CCCCC1
 OpenBabel07182308452D

  8  8  0  0  0  0  0  0  0  0999 V2000
    3.2108    3.0578    0.0000 C   0  0  0  0  0  0  0  0  0  0  0  0
    1.7885    3.0627    0.0000 C   0  0  0  0  0  0  0  0  0  0  0  0
    2.5020    2.6452    0.0000 C   0  0  0  0  0  0  0  0  0  0  0  0
    3.2156    3.8829    0.0000 C   0  0  0  0  0  0  0  0  0  0  0  0
    2.5020    4.2955    0.0000 C   0  0  0  0  0  0  0  0  0  0  0  0
    1.7837    3.8829    0.0000 C   0  0  0  0  0  0  0  0  0  0  0  0
    3.9340    4.2906    0.0000 Cl  0  0  0  0  0  0  0  0  0  0  0  0
    1.0702    3.4752    0.0000 H   0  0  0  0  0  0  0  0  0  0  0  0
  1  3  1  0  0  0  0
  2  8  1  0  0  0  0
  3  2  1  0  0  0  0
  4  5  1  0  0  0  0
  4  7  1  0  0  0  0
  4  1  1  0  0  0  0
  5  6  1  0  0  0  0
  6  2  1  0  0  0  0
M  END
$$$$
c1ccc2c(c1)[nH]cn2
 OpenBabel07182308452D

 10 11  0  0  1  0  0  0  0  0999 V2000
    5.2886    1.1606    0.0000 N   0  0  0  0  0  0  0  0  0  0  0  0
    5.2886   -0.1672    0.0000 N   0  0  0  0  0  0  0  0  0  0  0  0
    5.7701    0.4967    0.0000 C   0  0  0  0  0  0  0  0  0  0  0  0
    4.5080    0.9092    0.0000 C   0  0  0  0  0  0  0  0  0  0  0  0
    4.5080    0.0842    0.0000 C   0  0  0  0  0  0  0  0  0  0  0  0
    3.7935    1.3217    0.0000 C   0  0  0  0  0  0  0  0  0  0  0  0
    3.7935   -0.3284    0.0000 C   0  0  0  0  0  0  0  0  0  0  0  0
    3.0791    0.9092    0.0000 C   0  0  0  0  0  0  0  0  0  0  0  0
    3.0791    0.0842    0.0000 C   0  0  0  0  0  0  0  0  0  0  0  0
    5.5944    2.0964    0.0000 H   0  0  0  0  0  0  0  0  0  0  0  0
  1  3  1  0  0  0  0
  1  4  1  0  0  0  0
  1 10  1  0  0  0  0
  2  3  2  0  0  0  0
  2  5  1  0  0  0  0
  4  5  2  0  0  0  0
  4  6  1  0  0  0  0
  5  7  1  0  0  0  0
  6  8  2  0  0  0  0
  7  9  2  0  0  0  0
  8  9  1  0  0  0  0
M  END
$$$$
Cc1cncc(c1)C
 OpenBabel07182308452D

  8  8  0  0  1  0  0  0  0  0999 V2000
    8.2451    0.4967    0.0000 N   0  0  0  0  0  0  0  0  0  0  0  0
    7.8326   -0.2178    0.0000 C   0  0  0  0  0  0  0  0  0  0  0  0
    8.2451   -0.9323    0.0000 C   0  0  0  0  0  0  0  0  0  0  0  0
    9.0702   -0.9323    0.0000 C   0  0  0  0  0  0  0  0  0  0  0  0
    9.4827   -0.2178    0.0000 C   0  0  0  0  0  0  0  0  0  0  0  0
    7.8326   -1.6468    0.0000 C   0  0  0  0  0  0  0  0  0  0  0  0
    9.0702    0.4967    0.0000 C   0  0  0  0  0  0  0  0  0  0  0  0
   10.3077   -0.2178    0.0000 C   0  0  0  0  0  0  0  0  0  0  0  0
  1  2  2  0  0  0  0
  1  7  1  0  0  0  0
  2  3  1  0  0  0  0
  3  4  2  0  0  0  0
  3  6  1  0  0  0  0
  4  5  1  0  0  0  0
  5  7  2  0  0  0  0
  5  8  1  0  0  0  0
M  END
$$$$
CC1CCCN(C1)C
 OpenBabel07182308452D

  8  8  0  0  1  0  0  0  0  0999 V2000
    5.2784    1.6643    0.0000 N   0  0  0  0  0  0  0  0  0  0  0  0
    4.5640    0.4268    0.0000 C   0  0  3  0  0  0  0  0  0  0  0  0
    3.8495    0.0143    0.0000 C   0  0  0  0  0  0  0  0  0  0  0  0
    5.2784    0.0143    0.0000 C   0  0  0  0  0  0  0  0  0  0  0  0
    4.5640    1.2518    0.0000 C   0  0  0  0  0  0  0  0  0  0  0  0
    5.9929    0.4268    0.0000 C   0  0  0  0  0  0  0  0  0  0  0  0
    5.9929    1.2518    0.0000 C   0  0  0  0  0  0  0  0  0  0  0  0
    5.2784    2.4893    0.0000 C   0  0  0  0  0  0  0  0  0  0  0  0
  1  5  1  0  0  0  0
  1  7  1  0  0  0  0
  1  8  1  0  0  0  0
  2  3  1  0  0  0  0
  2  4  1  0  0  0  0
  2  5  1  0  0  0  0
  4  6  1  0  0  0  0
  6  7  1  0  0  0  0
M  END
$$$$
c1ccc2c(c1)Sc1c(C2)cccc1
 OpenBabel07182308452D

 14 16  0  0  1  0  0  0  0  0999 V2000
    3.8495   -2.4607    0.0000 S   0  0  0  0  0  0  0  0  0  0  0  0
    3.8495   -0.8107    0.0000 C   0  0  0  0  0  0  0  0  0  0  0  0
    4.5640   -1.2232    0.0000 C   0  0  0  0  0  0  0  0  0  0  0  0
    3.1350   -1.2232    0.0000 C   0  0  0  0  0  0  0  0  0  0  0  0
    4.5640   -2.0482    0.0000 C   0  0  0  0  0  0  0  0  0  0  0  0
    3.1350   -2.0482    0.0000 C   0  0  0  0  0  0  0  0  0  0  0  0
    2.3975   -0.7821    0.0000 C   0  0  0  0  0  0  0  0  0  0  0  0
    5.3015   -0.7821    0.0000 C   0  0  0  0  0  0  0  0  0  0  0  0
    5.3015   -2.4893    0.0000 C   0  0  0  0  0  0  0  0  0  0  0  0
    2.3975   -2.4893    0.0000 C   0  0  0  0  0  0  0  0  0  0  0  0
    6.0490   -1.2061    0.0000 C   0  0  0  0  0  0  0  0  0  0  0  0
    1.6500   -1.2061    0.0000 C   0  0  0  0  0  0  0  0  0  0  0  0
    6.0490   -2.0654    0.0000 C   0  0  0  0  0  0  0  0  0  0  0  0
    1.6500   -2.0654    0.0000 C   0  0  0  0  0  0  0  0  0  0  0  0
  1  5  1  0  0  0  0
  1  6  1  0  0  0  0
  2  3  1  0  0  0  0
  2  4  1  0  0  0  0
  3  5  1  0  0  0  0
  3  8  2  0  0  0  0
  4  6  1  0  0  0  0
  4  7  2  0  0  0  0
  5  9  2  0  0  0  0
  6 10  2  0  0  0  0
  7 12  1  0  0  0  0
  8 11  1  0  0  0  0
  9 13  1  0  0  0  0
 10 14  1  0  0  0  0
 11 13  2  0  0  0  0
 12 14  2  0  0  0  0
M  END
$$$$
OCc1ccccc1
 OpenBabel07182308452D

  9  9  0  0  0  0  0  0  0  0999 V2000
   31.8755  -20.3516    0.0000 C   0  0  0  0  0  0  0  0  0  0  0  0
   31.8755  -19.5151    0.0000 C   0  0  0  0  0  0  0  0  0  0  0  0
   31.1646  -19.0969    0.0000 C   0  0  0  0  0  0  0  0  0  0  0  0
   32.6284  -20.7698    0.0000 C   0  0  0  0  0  0  0  0  0  0  0  0
   33.3394  -20.3516    0.0000 C   0  0  0  0  0  0  0  0  0  0  0  0
   33.3394  -19.5151    0.0000 C   0  0  0  0  0  0  0  0  0  0  0  0
   32.6284  -19.0969    0.0000 C   0  0  0  0  0  0  0  0  0  0  0  0
   30.4535  -18.6786    0.0000 O   0  0  0  0  0  0  0  0  0  0  0  0
   30.4614  -17.7086    0.0000 H   0  0  0  0  0  0  0  0  0  0  0  0
  1  2  1  0  0  0  0
  1  4  2  0  0  0  0
  2  3  1  0  0  0  0
  2  7  2  0  0  0  0
  3  8  1  0  0  0  0
  4  5  1  0  0  0  0
  5  6  2  0  0  0  0
  6  7  1  0  0  0  0
  8  9  1  0  0  0  0
M  END
$$$$
O=C1[C@H](O)CSc2c(N1C)cccc2
 OpenBabel07182308452D

 14 15  0  0  0  0  0  0  0  0999 V2000
    0.3604    0.1671    0.0000 C   0  0  1  0  0  0  0  0  0  0  0  0
    0.0025   -0.5761    0.0000 C   0  0  0  0  0  0  0  0  0  0  0  0
   -0.8018   -0.7596    0.0000 N   0  0  0  0  0  0  0  0  0  0  0  0
   -0.8018    1.0941    0.0000 S   0  0  0  0  0  0  0  0  0  0  0  0
    0.0025    0.9105    0.0000 C   0  0  0  0  0  0  0  0  0  0  0  0
   -1.4468   -0.2453    0.0000 C   0  0  0  0  0  0  0  0  0  0  0  0
   -1.4468    0.5796    0.0000 C   0  0  0  0  0  0  0  0  0  0  0  0
    1.1854    0.1671    0.0000 O   0  0  0  0  0  0  0  0  0  0  0  0
   -0.9853   -1.5639    0.0000 C   0  0  0  0  0  0  0  0  0  0  0  0
    0.5168   -1.2210    0.0000 O   0  0  0  0  0  0  0  0  0  0  0  0
   -2.1612   -0.6578    0.0000 C   0  0  0  0  0  0  0  0  0  0  0  0
   -2.1612    0.9921    0.0000 C   0  0  0  0  0  0  0  0  0  0  0  0
   -2.8758   -0.2453    0.0000 C   0  0  0  0  0  0  0  0  0  0  0  0
   -2.8758    0.5796    0.0000 C   0  0  0  0  0  0  0  0  0  0  0  0
  1  8  1  1  0  0  0
  2  1  1  0  0  0  0
  3  2  1  0  0  0  0
  4  5  1  0  0  0  0
  5  1  1  0  0  0  0
  6  3  1  0  0  0  0
  7  4  1  0  0  0  0
  7  6  2  0  0  0  0
  9  3  1  0  0  0  0
 10  2  2  0  0  0  0
 11  6  1  0  0  0  0
 12  7  1  0  0  0  0
 13 11  2  0  0  0  0
 14 12  2  0  0  0  0
 14 13  1  0  0  0  0
M  END
$$$$
CC1c2ccccc2C=Cc2c1cccc2
 OpenBabel07182308452D

 16 18  0  0  0  0  0  0  0  0999 V2000
    4.0276    0.7461    0.0000 C   0  0  3  0  0  0  0  0  0  0  0  0
    4.0276   -0.0786    0.0000 C   0  0  0  0  0  0  0  0  0  0  0  0
    4.7706    1.1040    0.0000 C   0  0  0  0  0  0  0  0  0  0  0  0
    3.2842    1.1040    0.0000 C   0  0  0  0  0  0  0  0  0  0  0  0
    4.9542    1.9080    0.0000 C   0  0  0  0  0  0  0  0  0  0  0  0
    3.1007    1.9080    0.0000 C   0  0  0  0  0  0  0  0  0  0  0  0
    5.3914    0.5102    0.0000 C   0  0  0  0  0  0  0  0  0  0  0  0
    2.6637    0.5102    0.0000 C   0  0  0  0  0  0  0  0  0  0  0  0
    4.4398    2.5530    0.0000 C   0  0  0  0  0  0  0  0  0  0  0  0
    3.6151    2.5530    0.0000 C   0  0  0  0  0  0  0  0  0  0  0  0
    5.7710    2.1739    0.0000 C   0  0  0  0  0  0  0  0  0  0  0  0
    2.2838    2.1739    0.0000 C   0  0  0  0  0  0  0  0  0  0  0  0
    6.2142    0.7568    0.0000 C   0  0  0  0  0  0  0  0  0  0  0  0
    1.8406    0.7568    0.0000 C   0  0  0  0  0  0  0  0  0  0  0  0
    6.4054    1.5946    0.0000 C   0  0  0  0  0  0  0  0  0  0  0  0
    1.6497    1.5947    0.0000 C   0  0  0  0  0  0  0  0  0  0  0  0
  1  2  1  0  0  0  0
  1  3  1  0  0  0  0
  1  4  1  0  0  0  0
  3  5  1  0  0  0  0
  3  7  2  0  0  0  0
  4  6  1  0  0  0  0
  4  8  2  0  0  0  0
  5  9  1  0  0  0  0
  5 11  2  0  0  0  0
  6 10  1  0  0  0  0
  6 12  2  0  0  0  0
  7 13  1  0  0  0  0
  8 14  1  0  0  0  0
  9 10  2  0  0  0  0
 11 15  1  0  0  0  0
 12 16  1  0  0  0  0
 13 15  2  0  0  0  0
 14 16  2  0  0  0  0
M  END
$$$$
C1CCCO1
 OpenBabel07182308452D

  5  5  0  0  0  0  0  0  0  0999 V2000
   -4.2315    1.6096    0.0000 C   0  0  0  0  0  0  0  0  0  0  0  0
   -5.0565    1.6096    0.0000 C   0  0  0  0  0  0  0  0  0  0  0  0
   -5.3115    0.8250    0.0000 C   0  0  0  0  0  0  0  0  0  0  0  0
   -4.6440    0.3401    0.0000 O   0  0  0  0  0  0  0  0  0  0  0  0
   -3.9766    0.8250    0.0000 C   0  0  0  0  0  0  0  0  0  0  0  0
  1  2  1  0  0  0  0
  1  5  1  0  0  0  0
  2  3  1  0  0  0  0
  3  4  1  0  0  0  0
  4  5  1  0  0  0  0
M  END
$$$$
O=C1OC(C(=O)N1C)(C)C
 OpenBabel07182308452D

 10 10  0  0  0  0  0  0  0  0999 V2000
    2.6897    0.6348    0.0000 O   0  0  0  0  0  0  0  0  0  0  0  0
    4.5544   -0.4049    0.0000 O   0  0  0  0  0  0  0  0  0  0  0  0
    1.6501   -0.4049    0.0000 O   0  0  0  0  0  0  0  0  0  0  0  0
    3.1023   -0.6348    0.0000 N   0  0  0  0  0  0  0  0  0  0  0  0
    3.5148    0.6348    0.0000 C   0  0  0  0  0  0  0  0  0  0  0  0
    3.7697   -0.1498    0.0000 C   0  0  0  0  0  0  0  0  0  0  0  0
    4.2994    0.8897    0.0000 C   0  0  0  0  0  0  0  0  0  0  0  0
    3.5148    1.4598    0.0000 C   0  0  0  0  0  0  0  0  0  0  0  0
    2.4348   -0.1498    0.0000 C   0  0  0  0  0  0  0  0  0  0  0  0
    3.1023   -1.4598    0.0000 C   0  0  0  0  0  0  0  0  0  0  0  0
  1  5  1  0  0  0  0
  1  9  1  0  0  0  0
  2  6  2  0  0  0  0
  3  9  2  0  0  0  0
  4  6  1  0  0  0  0
  4  9  1  0  0  0  0
  4 10  1  0  0  0  0
  5  6  1  0  0  0  0
  5  7  1  0  0  0  0
  5  8  1  0  0  0  0
M  END
$$$$
O=C1CCCC(=O)C1
 OpenBabel07182308452D

  8  8  0  0  0  0  0  0  0  0999 V2000
    5.2224    0.4125    0.0000 O   0  0  0  0  0  0  0  0  0  0  0  0
    3.7935    2.8876    0.0000 O   0  0  0  0  0  0  0  0  0  0  0  0
    4.5080    1.6500    0.0000 C   0  0  0  0  0  0  0  0  0  0  0  0
    5.9370    2.4751    0.0000 C   0  0  0  0  0  0  0  0  0  0  0  0
    5.9370    1.6500    0.0000 C   0  0  0  0  0  0  0  0  0  0  0  0
    5.2224    2.8876    0.0000 C   0  0  0  0  0  0  0  0  0  0  0  0
    5.2224    1.2375    0.0000 C   0  0  0  0  0  0  0  0  0  0  0  0
    4.5080    2.4751    0.0000 C   0  0  0  0  0  0  0  0  0  0  0  0
  1  7  2  0  0  0  0
  2  8  2  0  0  0  0
  3  7  1  0  0  0  0
  3  8  1  0  0  0  0
  4  5  1  0  0  0  0
  4  6  1  0  0  0  0
  5  7  1  0  0  0  0
  6  8  1  0  0  0  0
M  END
$$$$
O=C1CC(=O)N(c2c(N1)cc(Cl)cc2)C
 OpenBabel07182308452D

 15 16  0  0  0  0  0  0  0  0999 V2000
    2.8172   -2.3593    0.0000 Cl  0  0  0  0  0  0  0  0  0  0  0  0
    5.1124    1.1545    0.0000 O   0  0  0  0  0  0  0  0  0  0  0  0
    2.6107    2.3593    0.0000 O   0  0  0  0  0  0  0  0  0  0  0  0
    4.1245    0.1666    0.0000 N   0  0  0  0  0  0  0  0  0  0  0  0
    2.4543    0.9709    0.0000 N   0  0  0  0  0  0  0  0  0  0  0  0
    3.3812   -0.1914    0.0000 C   0  0  0  0  0  0  0  0  0  0  0  0
    2.6379    0.1666    0.0000 C   0  0  0  0  0  0  0  0  0  0  0  0
    3.7937    1.6159    0.0000 C   0  0  0  0  0  0  0  0  0  0  0  0
    4.3081    0.9709    0.0000 C   0  0  0  0  0  0  0  0  0  0  0  0
    2.9687    1.6159    0.0000 C   0  0  0  0  0  0  0  0  0  0  0  0
    3.4586   -1.0473    0.0000 C   0  0  0  0  0  0  0  0  0  0  0  0
    1.9205   -0.3065    0.0000 C   0  0  0  0  0  0  0  0  0  0  0  0
    1.6500    1.1545    0.0000 C   0  0  0  0  0  0  0  0  0  0  0  0
    2.7524   -1.5367    0.0000 C   0  0  0  0  0  0  0  0  0  0  0  0
    1.9781   -1.1639    0.0000 C   0  0  0  0  0  0  0  0  0  0  0  0
  1 14  1  0  0  0  0
  2  9  2  0  0  0  0
  3 10  2  0  0  0  0
  4  6  1  0  0  0  0
  4  9  1  0  0  0  0
  5  7  1  0  0  0  0
  5 10  1  0  0  0  0
  5 13  1  0  0  0  0
  6  7  2  0  0  0  0
  6 11  1  0  0  0  0
  7 12  1  0  0  0  0
  8  9  1  0  0  0  0
  8 10  1  0  0  0  0
 11 14  2  0  0  0  0
 12 15  2  0  0  0  0
 14 15  1  0  0  0  0
M  END
$$$$
Nc1ccnc([n+]1[O-])N
 OpenBabel07182308452D

 13 13  0  0  0  0  0  0  0  0999 V2000
    0.0000    0.0000    0.0000 C   0  0  0  0  0  0  0  0  0  0  0  0
    0.7145   -0.4125    0.0000 C   0  0  0  0  0  0  0  0  0  0  0  0
   -0.7145   -0.4125    0.0000 N   0  0  0  0  0  0  0  0  0  0  0  0
    0.7145   -1.2375    0.0000 C   0  0  0  0  0  0  0  0  0  0  0  0
   -0.7145   -1.2375    0.0000 C   0  0  0  0  0  0  0  0  0  0  0  0
    0.0000   -1.6501    0.0000 N   0  3  0  0  0  0  0  0  0  0  0  0
    1.4290   -1.6501    0.0000 N   0  0  0  0  0  0  0  0  0  0  0  0
   -1.4290   -1.6501    0.0000 N   0  0  0  0  0  0  0  0  0  0  0  0
    0.0000   -2.4752    0.0000 O   0  5  0  0  0  0  0  0  0  0  0  0
    1.4289   -2.6346    0.0000 H   0  0  0  0  0  0  0  0  0  0  0  0
    2.2816   -1.1579    0.0000 H   0  0  0  0  0  0  0  0  0  0  0  0
   -2.2816   -1.1579    0.0000 H   0  0  0  0  0  0  0  0  0  0  0  0
   -1.4289   -2.6346    0.0000 H   0  0  0  0  0  0  0  0  0  0  0  0
  1  2  1  0  0  0  0
  1  3  2  0  0  0  0
  2  4  2  0  0  0  0
  3  5  1  0  0  0  0
  4  6  1  0  0  0  0
  4  7  1  0  0  0  0
  5  8  1  0  0  0  0
  5  6  2  0  0  0  0
  6  9  1  0  0  0  0
  7 10  1  0  0  0  0
  7 11  1  0  0  0  0
  8 12  1  0  0  0  0
  8 13  1  0  0  0  0
M  CHG  2   6   1   9  -1
M  END
$$$$
C1CCCNC1
 OpenBabel07182308452D

  6  6  0  0  0  0  0  0  0  0999 V2000
    0.0000    0.8251    0.0000 N   0  0  0  0  0  0  0  0  0  0  0  0
   -0.7145    1.2375    0.0000 C   0  0  0  0  0  0  0  0  0  0  0  0
    0.7145    1.2375    0.0000 C   0  0  0  0  0  0  0  0  0  0  0  0
   -0.7145    2.0627    0.0000 C   0  0  0  0  0  0  0  0  0  0  0  0
    0.7145    2.0627    0.0000 C   0  0  0  0  0  0  0  0  0  0  0  0
    0.0000    2.4751    0.0000 C   0  0  0  0  0  0  0  0  0  0  0  0
  1  2  1  0  0  0  0
  1  3  1  0  0  0  0
  2  4  1  0  0  0  0
  3  5  1  0  0  0  0
  4  6  1  0  0  0  0
  5  6  1  0  0  0  0
M  END
$$$$
O=C1CC[C@]2(C(=C1)C(=C[C@@H]1[C@@H]2CC[C@]2([C@H]1CCC2)C)C)C
 OpenBabel07182308452D

 24 27  0  0  1  0  0  0  0  0999 V2000
    1.5767   -0.3873    0.0000 C   0  0  0  0  0  0  0  0  0  0  0  0
    1.2677    2.5711    0.0000 C   0  0  0  0  0  0  0  0  0  0  0  0
   -1.2483    2.9732    0.0000 C   0  0  0  0  0  0  0  0  0  0  0  0
    2.8919    2.2807    0.0000 C   0  0  0  0  0  0  0  0  0  0  0  0
    0.4555    2.7164    0.0000 C   0  0  0  0  0  0  0  0  0  0  0  0
   -1.2594    0.9486    0.0000 C   0  0  0  0  0  0  0  0  0  0  0  0
    2.0798    2.4259    0.0000 C   0  0  0  0  0  0  0  0  0  0  0  0
   -0.3566    2.8616    0.0000 C   0  0  0  0  0  0  0  0  0  0  0  0
   -1.9423    1.4116    0.0000 C   0  0  0  0  0  0  0  0  0  0  0  0
    0.4843    0.5338    0.0000 C   0  0  0  0  0  0  0  0  0  0  0  0
    2.6404    0.8741    0.0000 C   0  0  0  0  0  0  0  0  0  0  0  0
    1.2964    0.3886    0.0000 C   0  0  0  0  0  0  0  0  0  0  0  0
    3.1722    1.5048    0.0000 C   0  0  0  0  0  0  0  0  0  0  0  0
    0.2040    1.3097    0.0000 C   0  0  2  0  0  0  0  0  0  0  0  0
    0.7358    1.9404    0.0000 C   0  0  1  0  0  0  0  0  0  0  0  0
   -0.6081    1.4549    0.0000 C   0  0  1  0  0  0  0  0  0  0  0  0
    1.8283    1.0193    0.0000 C   0  0  0  0  0  0  0  0  0  0  0  0
    1.5480    1.7952    0.0000 C   0  0  1  0  0  0  0  0  0  0  0  0
   -0.8884    2.2309    0.0000 C   0  0  2  0  0  0  0  0  0  0  0  0
   -1.7130    2.2041    0.0000 C   0  0  0  0  0  0  0  0  0  0  0  0
    3.9843    1.3596    0.0000 O   0  0  0  0  0  0  0  0  0  0  0  0
   -0.3278    0.6790    0.0000 H   0  0  0  0  0  0  0  0  0  0  0  0
    1.0161    1.1645    0.0000 H   0  0  0  0  0  0  0  0  0  0  0  0
   -0.0763    2.0856    0.0000 H   0  0  0  0  0  0  0  0  0  0  0  0
  7  4  1  0  0  0  0
  8  5  1  0  0  0  0
  9  6  1  0  0  0  0
 12  1  1  0  0  0  0
 12 10  2  0  0  0  0
 13  4  1  0  0  0  0
 13 11  1  0  0  0  0
 14 10  1  0  0  0  0
 14 15  1  6  0  0  0
 14 22  1  0  0  0  0
 15  5  1  0  0  0  0
 15 18  1  6  0  0  0
 15 23  1  0  0  0  0
 16  6  1  0  0  0  0
 16 14  1  6  0  0  0
 16 24  1  0  0  0  0
 17 11  2  0  0  0  0
 17 12  1  0  0  0  0
 18  2  1  6  0  0  0
 18  7  1  0  0  0  0
 18 17  1  0  0  0  0
 19  3  1  0  0  0  0
 19  8  1  0  0  0  0
 19 16  1  6  0  0  0
 20  9  1  0  0  0  0
 20 19  1  0  0  0  0
 21 13  2  0  0  0  0
M  END
$$$$
Nc1nc(=S)c2c([nH]1)nc[nH]2
 OpenBabel07182308452D

 15 16  0  0  0  0  0  0  0  0999 V2000
    3.5220    1.4933    0.0000 S   0  0  0  0  0  0  0  0  0  0  0  0
    3.5220   -0.9818    0.0000 N   0  0  0  0  0  0  0  0  0  0  0  0
    5.0171    0.5071    0.0000 N   0  0  0  0  0  0  0  0  0  0  0  0
    5.0171   -0.8206    0.0000 N   0  0  0  0  0  0  0  0  0  0  0  0
    2.8075    0.2558    0.0000 N   0  0  0  0  0  0  0  0  0  0  0  0
    2.0930   -0.9818    0.0000 N   0  0  0  0  0  0  0  0  0  0  0  0
    4.2365    0.2558    0.0000 C   0  0  0  0  0  0  0  0  0  0  0  0
    4.2365   -0.5693    0.0000 C   0  0  0  0  0  0  0  0  0  0  0  0
    3.5220    0.6683    0.0000 C   0  0  0  0  0  0  0  0  0  0  0  0
    2.8075   -0.5693    0.0000 C   0  0  0  0  0  0  0  0  0  0  0  0
    5.4986   -0.1568    0.0000 C   0  0  0  0  0  0  0  0  0  0  0  0
    3.5220   -1.9663    0.0000 H   0  0  0  0  0  0  0  0  0  0  0  0
    5.3230    1.4429    0.0000 H   0  0  0  0  0  0  0  0  0  0  0  0
    1.2404   -0.4895    0.0000 H   0  0  0  0  0  0  0  0  0  0  0  0
    2.0930   -1.9663    0.0000 H   0  0  0  0  0  0  0  0  0  0  0  0
  1  9  2  0  0  0  0
  2  8  1  0  0  0  0
  2 10  1  0  0  0  0
  2 12  1  0  0  0  0
  3  7  1  0  0  0  0
  3 11  1  0  0  0  0
  3 13  1  0  0  0  0
  4  8  1  0  0  0  0
  4 11  2  0  0  0  0
  5  9  1  0  0  0  0
  5 10  2  0  0  0  0
  6 10  1  0  0  0  0
  6 14  1  0  0  0  0
  6 15  1  0  0  0  0
  7  8  2  0  0  0  0
  7  9  1  0  0  0  0
M  END
$$$$
CN1CCC=C2[C@H]1Cc1c[nH]c3c1c2ccc3
 OpenBabel07182308452D

 19 22  0  0  1  0  0  0  0  0999 V2000
    5.9993    0.2572    0.0000 N   0  0  0  0  0  0  0  0  0  0  0  0
    6.8144   -3.1997    0.0000 N   0  0  0  0  0  0  0  0  0  0  0  0
    5.9860   -0.6021    0.0000 C   0  0  1  0  0  0  0  0  0  0  0  0
    5.2715   -1.0146    0.0000 C   0  0  0  0  0  0  0  0  0  0  0  0
    6.7005   -1.0146    0.0000 C   0  0  0  0  0  0  0  0  0  0  0  0
    4.5142    0.2628    0.0000 C   0  0  0  0  0  0  0  0  0  0  0  0
    5.2584    0.6925    0.0000 C   0  0  0  0  0  0  0  0  0  0  0  0
    6.7005   -1.8396    0.0000 C   0  0  0  0  0  0  0  0  0  0  0  0
    5.2715   -1.8396    0.0000 C   0  0  0  0  0  0  0  0  0  0  0  0
    5.9860   -2.2521    0.0000 C   0  0  0  0  0  0  0  0  0  0  0  0
    4.5208   -0.5965    0.0000 C   0  0  0  0  0  0  0  0  0  0  0  0
    5.9993   -3.1113    0.0000 C   0  0  0  0  0  0  0  0  0  0  0  0
    6.7184    0.6613    0.0000 C   0  0  0  0  0  0  0  0  0  0  0  0
    7.2103   -2.4817    0.0000 C   0  0  0  0  0  0  0  0  0  0  0  0
    4.5208   -2.2578    0.0000 C   0  0  0  0  0  0  0  0  0  0  0  0
    5.2584   -3.5467    0.0000 C   0  0  0  0  0  0  0  0  0  0  0  0
    4.5142   -3.1171    0.0000 C   0  0  0  0  0  0  0  0  0  0  0  0
    6.5960   -0.2562    0.0000 H   0  0  0  0  0  0  0  0  0  0  0  0
    7.2685   -4.0732    0.0000 H   0  0  0  0  0  0  0  0  0  0  0  0
  1  3  1  0  0  0  0
  1  7  1  0  0  0  0
  1 13  1  0  0  0  0
  2 12  1  0  0  0  0
  2 14  1  0  0  0  0
  2 19  1  0  0  0  0
  3  4  1  0  0  0  0
  3  5  1  0  0  0  0
  3 18  1  1  0  0  0
  4  9  1  0  0  0  0
  4 11  2  0  0  0  0
  5  8  1  0  0  0  0
  6  7  1  0  0  0  0
  6 11  1  0  0  0  0
  8 10  1  0  0  0  0
  8 14  2  0  0  0  0
  9 10  2  0  0  0  0
  9 15  1  0  0  0  0
 10 12  1  0  0  0  0
 12 16  2  0  0  0  0
 15 17  2  0  0  0  0
 16 17  1  0  0  0  0
M  END
$$$$
C[C@@H]1NC(=O)[C@H]1N
 OpenBabel07182308452D

  8  8  0  0  0  0  0  0  0  0999 V2000
   -0.7366    1.7384    0.0000 C   0  0  1  0  0  0  0  0  0  0  0  0
    0.0884    1.7384    0.0000 C   0  0  1  0  0  0  0  0  0  0  0  0
    0.0884    0.9134    0.0000 N   0  0  0  0  0  0  0  0  0  0  0  0
   -0.7366    0.9134    0.0000 C   0  0  0  0  0  0  0  0  0  0  0  0
   -1.3200    0.3300    0.0000 O   0  0  0  0  0  0  0  0  0  0  0  0
    0.6718    2.3218    0.0000 C   0  0  0  0  0  0  0  0  0  0  0  0
   -1.4511    2.1509    0.0000 N   0  0  0  0  0  0  0  0  0  0  0  0
   -1.4511    3.1354    0.0000 H   0  0  0  0  0  0  0  0  0  0  0  0
  1  2  1  0  0  0  0
  1  4  1  0  0  0  0
  1  7  1  1  0  0  0
  2  3  1  0  0  0  0
  2  6  1  6  0  0  0
  4  3  1  0  0  0  0
  4  5  2  0  0  0  0
  7  8  1  0  0  0  0
M  END
$$$$
[O-]S(=O)=O
 OpenBabel07182308452D

  4  3  0  0  0  0  0  0  0  0999 V2000
    0.6718    0.3300    0.0000 S   0  0  0  0  0  0  0  0  0  0  0  0
    1.2551   -0.2533    0.0000 O   0  5  0  0  0  0  0  0  0  0  0  0
    1.2684    0.9586    0.0000 O   0  0  0  0  0  0  0  0  0  0  0  0
    0.0555   -0.2985    0.0000 O   0  0  0  0  0  0  0  0  0  0  0  0
  1  2  1  0  0  0  0
  1  3  2  0  0  0  0
  1  4  2  0  0  0  0
M  CHG  1   2  -1
M  END
$$$$
ON=C
 OpenBabel07182308452D

  3  2  0  0  0  0  0  0  0  0999 V2000
   -2.8800    2.1509    0.0000 C   0  0  0  0  0  0  0  0  0  0  0  0
   -2.8800    2.9759    0.0000 N   0  0  0  0  0  0  0  0  0  0  0  0
   -2.1655    3.3884    0.0000 O   0  0  0  0  0  0  0  0  0  0  0  0
  1  2  2  0  0  0  0
  2  3  1  0  0  0  0
M  END
$$$$
[NH3+]c1nccs1
 OpenBabel07182308452D

  9  9  0  0  0  0  0  0  0  0999 V2000
   -4.3791    0.6585    0.0000 S   0  0  0  0  0  0  0  0  0  0  0  0
   -3.5945    0.9134    0.0000 C   0  0  0  0  0  0  0  0  0  0  0  0
   -3.5945    1.7384    0.0000 C   0  0  0  0  0  0  0  0  0  0  0  0
   -4.3791    1.9933    0.0000 N   0  0  0  0  0  0  0  0  0  0  0  0
   -4.8640    1.3259    0.0000 C   0  0  0  0  0  0  0  0  0  0  0  0
   -5.6890    1.3259    0.0000 N   0  3  0  0  0  0  0  0  0  0  0  0
   -6.1813    2.1785    0.0000 H   0  0  0  0  0  0  0  0  0  0  0  0
   -6.1813    0.4733    0.0000 H   0  0  0  0  0  0  0  0  0  0  0  0
   -6.6735    1.3259    0.0000 H   0  0  0  0  0  0  0  0  0  0  0  0
  1  2  1  0  0  0  0
  1  5  1  0  0  0  0
  2  3  2  0  0  0  0
  3  4  1  0  0  0  0
  4  5  2  0  0  0  0
  5  6  1  0  0  0  0
  6  7  1  0  0  0  0
  6  8  1  0  0  0  0
  6  9  1  0  0  0  0
M  CHG  1   6   1
M  END
$$$$
Clc1ccc2c(c1)[nH]c(=O)o2
 OpenBabel07182308452D

 12 13  0  0  0  0  0  0  0  0999 V2000
    1.6500    0.6625    0.0000 Cl  0  0  0  0  0  0  0  0  0  0  0  0
    4.5741   -0.8265    0.0000 O   0  0  0  0  0  0  0  0  0  0  0  0
    5.8806   -0.1625    0.0000 O   0  0  0  0  0  0  0  0  0  0  0  0
    4.5741    0.5014    0.0000 N   0  0  0  0  0  0  0  0  0  0  0  0
    3.7935    0.2500    0.0000 C   0  0  0  0  0  0  0  0  0  0  0  0
    3.7935   -0.5750    0.0000 C   0  0  0  0  0  0  0  0  0  0  0  0
    3.0789    0.6625    0.0000 C   0  0  0  0  0  0  0  0  0  0  0  0
    3.0789   -0.9875    0.0000 C   0  0  0  0  0  0  0  0  0  0  0  0
    2.3645    0.2500    0.0000 C   0  0  0  0  0  0  0  0  0  0  0  0
    5.0556   -0.1625    0.0000 C   0  0  0  0  0  0  0  0  0  0  0  0
    2.3645   -0.5750    0.0000 C   0  0  0  0  0  0  0  0  0  0  0  0
    4.8799    1.4372    0.0000 H   0  0  0  0  0  0  0  0  0  0  0  0
  1  9  1  0  0  0  0
  2  6  1  0  0  0  0
  2 10  1  0  0  0  0
  3 10  2  0  0  0  0
  4  5  1  0  0  0  0
  4 10  1  0  0  0  0
  4 12  1  0  0  0  0
  5  6  2  0  0  0  0
  5  7  1  0  0  0  0
  6  8  1  0  0  0  0
  7  9  2  0  0  0  0
  8 11  2  0  0  0  0
  9 11  1  0  0  0  0
M  END
$$$$
O=C1CCCC(=O)N1
 OpenBabel07182308452D

  9  9  0  0  1  0  0  0  0  0999 V2000
    1.6500   -0.4129    0.0000 O   0  0  0  0  0  0  0  0  0  0  0  0
    3.0791   -2.8880    0.0000 O   0  0  0  0  0  0  0  0  0  0  0  0
    2.3645   -1.6504    0.0000 N   0  0  0  0  0  0  0  0  0  0  0  0
    3.0791   -0.4129    0.0000 C   0  0  0  0  0  0  0  0  0  0  0  0
    3.7935   -0.8254    0.0000 C   0  0  0  0  0  0  0  0  0  0  0  0
    3.7935   -1.6504    0.0000 C   0  0  0  0  0  0  0  0  0  0  0  0
    2.3645   -0.8254    0.0000 C   0  0  0  0  0  0  0  0  0  0  0  0
    3.0791   -2.0630    0.0000 C   0  0  0  0  0  0  0  0  0  0  0  0
    1.5119   -2.1426    0.0000 H   0  0  0  0  0  0  0  0  0  0  0  0
  1  7  2  0  0  0  0
  2  8  2  0  0  0  0
  3  7  1  0  0  0  0
  3  8  1  0  0  0  0
  3  9  1  0  0  0  0
  4  5  1  0  0  0  0
  4  7  1  0  0  0  0
  5  6  1  0  0  0  0
  6  8  1  0  0  0  0
M  END
$$$$
c1ccc2c(c1)nccc2
 OpenBabel07182308452D

 10 11  0  0  1  0  0  0  0  0999 V2000
    3.7934   -1.2232    0.0000 N   0  0  0  0  0  0  0  0  0  0  0  0
    3.7934    0.4268    0.0000 C   0  0  0  0  0  0  0  0  0  0  0  0
    4.5079    0.0143    0.0000 C   0  0  0  0  0  0  0  0  0  0  0  0
    3.0790    0.0143    0.0000 C   0  0  0  0  0  0  0  0  0  0  0  0
    4.5079   -0.8107    0.0000 C   0  0  0  0  0  0  0  0  0  0  0  0
    3.0790   -0.8107    0.0000 C   0  0  0  0  0  0  0  0  0  0  0  0
    5.2453    0.4553    0.0000 C   0  0  0  0  0  0  0  0  0  0  0  0
    5.2453   -1.2519    0.0000 C   0  0  0  0  0  0  0  0  0  0  0  0
    5.9929    0.0314    0.0000 C   0  0  0  0  0  0  0  0  0  0  0  0
    5.9929   -0.8280    0.0000 C   0  0  0  0  0  0  0  0  0  0  0  0
  1  5  1  0  0  0  0
  1  6  2  0  0  0  0
  2  3  1  0  0  0  0
  2  4  2  0  0  0  0
  3  5  2  0  0  0  0
  3  7  1  0  0  0  0
  4  6  1  0  0  0  0
  5  8  1  0  0  0  0
  7  9  2  0  0  0  0
  8 10  2  0  0  0  0
  9 10  1  0  0  0  0
M  END
$$$$
c1ccncn1
 OpenBabel07182308452D

  6  6  0  0  0  0  0  0  0  0999 V2000
    3.1895    2.6029    0.0000 N   0  0  0  0  0  0  0  0  0  0  0  0
    3.9041    1.3654    0.0000 N   0  0  0  0  0  0  0  0  0  0  0  0
    3.1895    1.7779    0.0000 C   0  0  0  0  0  0  0  0  0  0  0  0
    3.9041    3.0154    0.0000 C   0  0  0  0  0  0  0  0  0  0  0  0
    4.6185    1.7779    0.0000 C   0  0  0  0  0  0  0  0  0  0  0  0
    4.6185    2.6029    0.0000 C   0  0  0  0  0  0  0  0  0  0  0  0
  1  3  1  0  0  0  0
  1  4  2  0  0  0  0
  2  3  2  0  0  0  0
  2  5  1  0  0  0  0
  4  6  1  0  0  0  0
  5  6  2  0  0  0  0
M  END
$$$$
Nc1nc2NCCNc2c(=O)[nH]1
 OpenBabel07182308452D

 18 19  0  0  1  0  0  0  0  0999 V2000
   16.7212  -13.4281    0.0000 C   0  0  0  0  0  0  0  0  0  0  0  0
   16.7212  -12.5957    0.0000 C   0  0  0  0  0  0  0  0  0  0  0  0
   16.0019  -13.8495    0.0000 N   0  0  0  0  0  0  0  0  0  0  0  0
   17.4407  -13.8392    0.0000 N   0  0  0  0  0  0  0  0  0  0  0  0
   15.9950  -12.1812    0.0000 N   0  0  0  0  0  0  0  0  0  0  0  0
   17.4407  -12.1777    0.0000 C   0  0  0  0  0  0  0  0  0  0  0  0
   15.2756  -13.4349    0.0000 C   0  0  0  0  0  0  0  0  0  0  0  0
   18.1463  -13.4281    0.0000 C   0  0  0  0  0  0  0  0  0  0  0  0
   15.2619  -12.6025    0.0000 C   0  0  0  0  0  0  0  0  0  0  0  0
   18.1463  -12.5957    0.0000 N   0  0  0  0  0  0  0  0  0  0  0  0
   17.4407  -11.3590    0.0000 O   0  0  0  0  0  0  0  0  0  0  0  0
   18.8590  -13.8392    0.0000 N   0  0  0  0  0  0  0  0  0  0  0  0
   15.2619  -11.7775    0.0000 H   0  0  0  0  0  0  0  0  0  0  0  0
   16.0074  -14.8340    0.0000 H   0  0  0  0  0  0  0  0  0  0  0  0
   15.9936  -11.1967    0.0000 H   0  0  0  0  0  0  0  0  0  0  0  0
   19.0016  -12.1082    0.0000 H   0  0  0  0  0  0  0  0  0  0  0  0
   18.8594  -14.8237    0.0000 H   0  0  0  0  0  0  0  0  0  0  0  0
   19.7114  -13.3466    0.0000 H   0  0  0  0  0  0  0  0  0  0  0  0
  1  2  2  0  0  0  0
  1  3  1  0  0  0  0
  1  4  1  0  0  0  0
  2  5  1  0  0  0  0
  2  6  1  0  0  0  0
  3  7  1  0  0  0  0
  3 14  1  0  0  0  0
  4  8  2  0  0  0  0
  5  9  1  0  0  0  0
  5 15  1  0  0  0  0
  6 10  1  0  0  0  0
  6 11  2  0  0  0  0
  7  9  1  0  0  0  0
  8 12  1  0  0  0  0
  8 10  1  0  0  0  0
  9 13  1  0  0  0  0
 10 16  1  0  0  0  0
 12 17  1  0  0  0  0
 12 18  1  0  0  0  0
M  END
$$$$
C1=C[C@H]2CCc3c(CN(C1)C2)c1ccccc1[nH]3
 OpenBabel07182308452D

 20 23  0  0  0  0  0  0  0  0999 V2000
   -1.4347    1.8312    0.0000 N   0  0  3  0  0  0  0  0  0  0  0  0
   -1.4324    1.0051    0.0000 C   0  0  0  0  0  0  0  0  0  0  0  0
   -0.7196    0.5971    0.0000 C   0  0  1  0  0  0  0  0  0  0  0  0
   -0.0051    1.0104    0.0000 C   0  0  0  0  0  0  0  0  0  0  0  0
   -0.0082    1.8365    0.0000 C   0  0  0  0  0  0  0  0  0  0  0  0
   -0.7258    2.2491    0.0000 C   0  0  0  0  0  0  0  0  0  0  0  0
   -0.7176   -0.2280    0.0000 C   0  0  0  0  0  0  0  0  0  0  0  0
   -1.4511   -0.6057    0.0000 C   0  0  0  0  0  0  0  0  0  0  0  0
   -0.1116    0.0484    0.0000 H   0  0  0  0  0  0  0  0  0  0  0  0
   -4.9847    1.5335    0.0000 C   0  0  0  0  0  0  0  0  0  0  0  0
   -5.2395    0.7462    0.0000 C   0  0  0  0  0  0  0  0  0  0  0  0
   -4.6857    0.1341    0.0000 C   0  0  0  0  0  0  0  0  0  0  0  0
   -4.1806    1.7082    0.0000 C   0  0  0  0  0  0  0  0  0  0  0  0
   -3.6250    1.0994    0.0000 C   0  0  0  0  0  0  0  0  0  0  0  0
   -3.8796    0.3082    0.0000 C   0  0  0  0  0  0  0  0  0  0  0  0
   -3.2058   -0.1783    0.0000 N   0  0  0  0  0  0  0  0  0  0  0  0
   -2.5348    0.3120    0.0000 C   0  0  0  0  0  0  0  0  0  0  0  0
   -2.7940    1.1017    0.0000 C   0  0  0  0  0  0  0  0  0  0  0  0
   -2.4093    1.8288    0.0000 C   0  0  0  0  0  0  0  0  0  0  0  0
   -3.2030   -1.1628    0.0000 H   0  0  0  0  0  0  0  0  0  0  0  0
  1  6  1  0  0  0  0
  1  2  1  0  0  0  0
  1 19  1  0  0  0  0
  2  3  1  0  0  0  0
  3  4  1  0  0  0  0
  3  7  1  0  0  0  0
  3  9  1  6  0  0  0
  4  5  2  0  0  0  0
  5  6  1  0  0  0  0
  7  8  1  0  0  0  0
 10 11  2  0  0  0  0
 11 12  1  0  0  0  0
 12 15  2  0  0  0  0
 13 10  1  0  0  0  0
 14 13  2  0  0  0  0
 14 15  1  0  0  0  0
 15 16  1  0  0  0  0
 16 17  1  0  0  0  0
 16 20  1  0  0  0  0
 17 18  2  0  0  0  0
 17  8  1  0  0  0  0
 18 14  1  0  0  0  0
 18 19  1  0  0  0  0
M  END
$$$$
O[C@H]1CN2[C@@H](C1)C(=O)NCC(=O)NCC(=O)N1C[C@@H]([C@@H]([C@H]1C(=O)N[C@@H]([C@@H](C[C@@H](C(=O)NCC2=O)N)O)O)O)C
 OpenBabel07182308452D

 49 51  0  0  0  0  0  0  0  0999 V2000
   -4.8728    0.3152    0.0000 C   0  0  0  0  0  0  0  0  0  0  0  0
   -4.2355   -0.2143    0.0000 N   0  0  0  0  0  0  0  0  0  0  0  0
   -3.5341    0.2265    0.0000 C   0  0  1  0  0  0  0  0  0  0  0  0
   -3.7385    1.0320    0.0000 C   0  0  2  0  0  0  0  0  0  0  0  0
   -4.5646    1.0829    0.0000 C   0  0  1  0  0  0  0  0  0  0  0  0
   -0.8366    0.2097    0.0000 C   0  0  0  0  0  0  0  0  0  0  0  0
   -1.0935    0.9752    0.0000 C   0  0  2  0  0  0  0  0  0  0  0  0
   -1.9013    0.9717    0.0000 C   0  0  2  0  0  0  0  0  0  0  0  0
   -2.1492    0.2006    0.0000 N   0  0  0  0  0  0  0  0  0  0  0  0
   -2.8436   -0.2053    0.0000 C   0  0  0  0  0  0  0  0  0  0  0  0
   -0.1448   -0.1929    0.0000 C   0  0  1  0  0  0  0  0  0  0  0  0
   -0.1489   -1.0005    0.0000 C   0  0  0  0  0  0  0  0  0  0  0  0
   -0.8493   -1.4012    0.0000 N   0  0  0  0  0  0  0  0  0  0  0  0
    0.5496   -1.4075    0.0000 O   0  0  0  0  0  0  0  0  0  0  0  0
   -0.8555   -2.2048    0.0000 C   0  0  0  0  0  0  0  0  0  0  0  0
   -1.5571   -2.5968    0.0000 C   0  0  0  0  0  0  0  0  0  0  0  0
   -0.8717   -3.8181    0.0000 C   0  0  0  0  0  0  0  0  0  0  0  0
   -1.5704   -3.4095    0.0000 N   0  0  0  0  0  0  0  0  0  0  0  0
   -2.1753   -3.9432    0.0000 C   0  0  1  0  0  0  0  0  0  0  0  0
   -1.8525   -4.6876    0.0000 C   0  0  0  0  0  0  0  0  0  0  0  0
   -1.0473   -4.6076    0.0000 C   0  0  1  0  0  0  0  0  0  0  0  0
   -2.8774   -3.5404    0.0000 C   0  0  0  0  0  0  0  0  0  0  0  0
   -3.5761   -3.9423    0.0000 N   0  0  0  0  0  0  0  0  0  0  0  0
   -4.2750   -3.5404    0.0000 C   0  0  0  0  0  0  0  0  0  0  0  0
   -2.8816   -2.7327    0.0000 O   0  0  0  0  0  0  0  0  0  0  0  0
   -4.9360   -0.6154    0.0000 C   0  0  0  0  0  0  0  0  0  0  0  0
   -5.6350   -0.2137    0.0000 C   0  0  0  0  0  0  0  0  0  0  0  0
   -4.9401   -1.4270    0.0000 O   0  0  0  0  0  0  0  0  0  0  0  0
   -2.2998    1.6317    0.0000 O   0  0  0  0  0  0  0  0  0  0  0  0
   -0.8017    1.5648    0.0000 O   0  0  0  0  0  0  0  0  0  0  0  0
   -0.3498   -5.0134    0.0000 O   0  0  0  0  0  0  0  0  0  0  0  0
   -4.2791   -2.7327    0.0000 C   0  0  0  0  0  0  0  0  0  0  0  0
   -5.6391   -1.8134    0.0000 N   0  0  0  0  0  0  0  0  0  0  0  0
   -3.5802   -2.3227    0.0000 O   0  0  0  0  0  0  0  0  0  0  0  0
   -2.8419   -1.0130    0.0000 O   0  0  0  0  0  0  0  0  0  0  0  0
   -5.6391    0.5941    0.0000 H   0  0  0  0  0  0  0  0  0  0  0  0
   -2.2622   -2.1930    0.0000 O   0  0  0  0  0  0  0  0  0  0  0  0
   -3.2100    1.6702    0.0000 O   0  0  0  0  0  0  0  0  0  0  0  0
   -5.0073    1.7832    0.0000 C   0  0  0  0  0  0  0  0  0  0  0  0
    0.5745    0.2182    0.0000 N   0  0  0  0  0  0  0  0  0  0  0  0
   -1.3815   -0.4157    0.0000 H   0  0  0  0  0  0  0  0  0  0  0  0
   -1.6990   -0.9040    0.0000 H   0  0  0  0  0  0  0  0  0  0  0  0
   -3.5760   -4.9268    0.0000 H   0  0  0  0  0  0  0  0  0  0  0  0
   -1.8314    2.4811    0.0000 H   0  0  0  0  0  0  0  0  0  0  0  0
    0.1663    1.6269    0.0000 H   0  0  0  0  0  0  0  0  0  0  0  0
   -0.3530   -5.9834    0.0000 H   0  0  0  0  0  0  0  0  0  0  0  0
   -6.5092   -2.2740    0.0000 H   0  0  0  0  0  0  0  0  0  0  0  0
   -2.2537    1.5080    0.0000 H   0  0  0  0  0  0  0  0  0  0  0  0
    0.5788    1.2027    0.0000 H   0  0  0  0  0  0  0  0  0  0  0  0
  1  2  1  0  0  0  0
  2  3  1  0  0  0  0
  2 26  1  0  0  0  0
  3  4  1  0  0  0  0
  3 10  1  1  0  0  0
  4 38  1  6  0  0  0
  4  5  1  0  0  0  0
  5 39  1  6  0  0  0
  5  1  1  0  0  0  0
  6  7  1  0  0  0  0
  6 11  1  0  0  0  0
  7 30  1  6  0  0  0
  7  8  1  0  0  0  0
  8 29  1  6  0  0  0
  8  9  1  0  0  0  0
  9 41  1  0  0  0  0
 10 35  2  0  0  0  0
 10  9  1  0  0  0  0
 11 40  1  6  0  0  0
 11 12  1  0  0  0  0
 12 13  1  0  0  0  0
 12 14  2  0  0  0  0
 13 42  1  0  0  0  0
 15 13  1  0  0  0  0
 15 16  1  0  0  0  0
 16 18  1  0  0  0  0
 16 37  2  0  0  0  0
 17 18  1  0  0  0  0
 18 19  1  0  0  0  0
 19 20  1  1  0  0  0
 19 22  1  0  0  0  0
 20 21  1  0  0  0  0
 21 31  1  6  0  0  0
 21 17  1  0  0  0  0
 22 23  1  0  0  0  0
 22 25  2  0  0  0  0
 23 43  1  0  0  0  0
 24 32  1  0  0  0  0
 24 23  1  0  0  0  0
 26 27  1  0  0  0  0
 26 28  2  0  0  0  0
 27 36  1  0  0  0  0
 27 33  1  0  0  0  0
 29 44  1  0  0  0  0
 30 45  1  0  0  0  0
 31 46  1  0  0  0  0
 32 34  2  0  0  0  0
 33 32  1  0  0  0  0
 33 47  1  0  0  0  0
 38 48  1  0  0  0  0
 40 49  1  0  0  0  0
M  END
$$$$
Clc1ccc2c(c1)N=Cc1c(N2)cccc1
 OpenBabel07182308452D

 17 19  0  0  0  0  0  0  0  0999 V2000
   13.5847   -8.0997    0.0000 C   0  0  0  0  0  0  0  0  0  0  0  0
   13.0879   -7.4451    0.0000 C   0  0  0  0  0  0  0  0  0  0  0  0
   13.2856   -6.6446    0.0000 C   0  0  0  0  0  0  0  0  0  0  0  0
   14.0296   -6.3036    0.0000 N   0  0  0  0  0  0  0  0  0  0  0  0
   14.4141   -8.1146    0.0000 N   0  0  0  0  0  0  0  0  0  0  0  0
   14.7692   -6.6707    0.0000 C   0  0  0  0  0  0  0  0  0  0  0  0
   14.9382   -7.4782    0.0000 C   0  0  0  0  0  0  0  0  0  0  0  0
   12.6915   -6.0733    0.0000 C   0  0  0  0  0  0  0  0  0  0  0  0
   11.8997   -6.3023    0.0000 C   0  0  0  0  0  0  0  0  0  0  0  0
   11.7020   -7.1028    0.0000 C   0  0  0  0  0  0  0  0  0  0  0  0
   12.2962   -7.6739    0.0000 C   0  0  0  0  0  0  0  0  0  0  0  0
   15.7236   -7.7361    0.0000 C   0  0  0  0  0  0  0  0  0  0  0  0
   16.3396   -7.1848    0.0000 C   0  0  0  0  0  0  0  0  0  0  0  0
   16.1706   -6.3773    0.0000 C   0  0  0  0  0  0  0  0  0  0  0  0
   15.3852   -6.1194    0.0000 C   0  0  0  0  0  0  0  0  0  0  0  0
   17.1389   -7.4474    0.0000 Cl  0  0  0  0  0  0  0  0  0  0  0  0
   14.0448   -5.3192    0.0000 H   0  0  0  0  0  0  0  0  0  0  0  0
  1  5  2  0  0  0  0
  1  2  1  0  0  0  0
  2  3  1  0  0  0  0
  2 11  2  0  0  0  0
  3  4  1  0  0  0  0
  3  8  2  0  0  0  0
  4  6  1  0  0  0  0
  4 17  1  0  0  0  0
  5  7  1  0  0  0  0
  6  7  1  0  0  0  0
  6 15  2  0  0  0  0
  7 12  2  0  0  0  0
  8  9  1  0  0  0  0
  9 10  2  0  0  0  0
 10 11  1  0  0  0  0
 12 13  1  0  0  0  0
 13 14  2  0  0  0  0
 13 16  1  0  0  0  0
 14 15  1  0  0  0  0
M  END
$$$$
O
 OpenBabel07182308452D

  3  2  0  0  0  0  0  0  0  0999 V2000
    7.7991   -0.4389    0.0000 O   0  0  0  0  0  0  0  0  0  0  0  0
    8.7691   -0.4389    0.0000 H   0  0  0  0  0  0  0  0  0  0  0  0
    7.3141    0.4011    0.0000 H   0  0  0  0  0  0  0  0  0  0  0  0
  1  2  1  0  0  0  0
  1  3  1  0  0  0  0
M  END
$$$$
O[Al](O)O
 OpenBabel07182308452D

  7  6  0  0  0  0  0  0  0  0999 V2000
    8.2228   -3.0549    0.0000 O   0  0  0  0  0  0  0  0  0  0  0  0
    7.8103   -3.7694    0.0000 Al  0  0  0  0  0  0  0  0  0  0  0  0
    8.2228   -4.4839    0.0000 O   0  0  0  0  0  0  0  0  0  0  0  0
    6.9853   -3.7694    0.0000 O   0  0  0  0  0  0  0  0  0  0  0  0
    9.1928   -3.0549    0.0000 H   0  0  0  0  0  0  0  0  0  0  0  0
    7.7378   -5.3239    0.0000 H   0  0  0  0  0  0  0  0  0  0  0  0
    6.5003   -2.9294    0.0000 H   0  0  0  0  0  0  0  0  0  0  0  0
  1  2  1  0  0  0  0
  1  5  1  0  0  0  0
  2  3  1  0  0  0  0
  2  4  1  0  0  0  0
  3  6  1  0  0  0  0
  4  7  1  0  0  0  0
M  END
$$$$
OS(=O)=O
 OpenBabel07182308452D

  4  3  0  0  0  0  0  0  0  0999 V2000
   -1.4169   -4.9600    0.0000 S   0  0  0  0  0  0  0  0  0  0  0  0
   -0.7494   -5.4450    0.0000 O   0  0  0  0  0  0  0  0  0  0  0  0
   -2.0843   -4.4751    0.0000 O   0  0  0  0  0  0  0  0  0  0  0  0
   -0.9320   -4.2925    0.0000 O   0  0  0  0  0  0  0  0  0  0  0  0
  1  2  2  0  0  0  0
  1  3  2  0  0  0  0
  1  4  1  0  0  0  0
M  END
$$$$
C[C@H]1O[C@@]([C@H]([C@@H]1O)O)(C)O
 OpenBabel07182308452D

 10 10  0  0  0  0  0  0  0  0999 V2000
   -0.1115   -4.3788    0.0000 C   0  0  0  0  0  0  0  0  0  0  0  0
    0.3733   -3.7114    0.0000 C   0  0  1  0  0  0  0  0  0  0  0  0
    0.1184   -2.9268    0.0000 O   0  0  0  0  0  0  0  0  0  0  0  0
    0.7858   -2.4418    0.0000 C   0  0  1  0  0  0  0  0  0  0  0  0
    0.2338   -1.8287    0.0000 C   0  0  0  0  0  0  0  0  0  0  0  0
    1.3378   -1.8287    0.0000 O   0  0  0  0  0  0  0  0  0  0  0  0
    1.4533   -2.9268    0.0000 C   0  0  1  0  0  0  0  0  0  0  0  0
    2.2378   -2.6718    0.0000 O   0  0  0  0  0  0  0  0  0  0  0  0
    1.1983   -3.7114    0.0000 C   0  0  2  0  0  0  0  0  0  0  0  0
    1.6832   -4.3788    0.0000 O   0  0  0  0  0  0  0  0  0  0  0  0
  2  1  1  1  0  0  0
  2  3  1  0  0  0  0
  4  3  1  0  0  0  0
  4  5  1  6  0  0  0
  4  6  1  0  0  0  0
  7  4  1  1  0  0  0
  7  8  1  0  0  0  0
  7  9  1  0  0  0  0
  9  2  1  0  0  0  0
  9 10  1  6  0  0  0
M  END
$$$$
OS(=O)(=O)O
 OpenBabel07182308452D

  5  4  0  0  0  0  0  0  0  0999 V2000
   -0.5731   -2.0003    0.0000 O   0  0  0  0  0  0  0  0  0  0  0  0
   -1.1251   -1.3872    0.0000 S   0  0  0  0  0  0  0  0  0  0  0  0
   -0.5120   -0.8351    0.0000 O   0  0  0  0  0  0  0  0  0  0  0  0
   -1.6771   -0.7741    0.0000 O   0  0  0  0  0  0  0  0  0  0  0  0
   -1.7382   -1.9392    0.0000 O   0  0  0  0  0  0  0  0  0  0  0  0
  1  2  1  0  0  0  0
  2  3  2  0  0  0  0
  2  4  2  0  0  0  0
  2  5  1  0  0  0  0
M  END
$$$$
O[AlH]O
 OpenBabel07182308452D

  5  4  0  0  0  0  0  0  0  0999 V2000
   -1.5667   -2.7462    0.0000 Al  0  0  0  0  0  0  0  0  0  0  0  0
   -0.7820   -3.0011    0.0000 O   0  0  0  0  0  0  0  0  0  0  0  0
   -2.1798   -3.2982    0.0000 O   0  0  0  0  0  0  0  0  0  0  0  0
   -0.5803   -3.9499    0.0000 H   0  0  0  0  0  0  0  0  0  0  0  0
   -3.1023   -2.9984    0.0000 H   0  0  0  0  0  0  0  0  0  0  0  0
  1  2  1  0  0  0  0
  1  3  1  0  0  0  0
  2  4  1  0  0  0  0
  3  5  1  0  0  0  0
M  END
$$$$
O[C@H]1CO[C@@H]([C@H]([C@@H]1O)O)C
 OpenBabel07182308452D

 10 10  0  0  0  0  0  0  0  0999 V2000
    1.0829   -1.0441    0.0000 C   0  0  0  0  0  0  0  0  0  0  0  0
    0.2760   -0.8726    0.0000 O   0  0  0  0  0  0  0  0  0  0  0  0
    0.0210   -0.0880    0.0000 C   0  0  2  0  0  0  0  0  0  0  0  0
   -0.7858    0.0835    0.0000 C   0  0  0  0  0  0  0  0  0  0  0  0
    0.5731    0.5250    0.0000 C   0  0  1  0  0  0  0  0  0  0  0  0
    0.3181    1.3096    0.0000 O   0  0  0  0  0  0  0  0  0  0  0  0
    1.3799    0.3535    0.0000 C   0  0  2  0  0  0  0  0  0  0  0  0
    1.9321    0.9666    0.0000 O   0  0  0  0  0  0  0  0  0  0  0  0
    1.6350   -0.4310    0.0000 C   0  0  1  0  0  0  0  0  0  0  0  0
    2.4419   -0.6026    0.0000 O   0  0  0  0  0  0  0  0  0  0  0  0
  1  2  1  0  0  0  0
  3  2  1  0  0  0  0
  3  4  1  6  0  0  0
  5  3  1  0  0  0  0
  5  6  1  1  0  0  0
  5  7  1  0  0  0  0
  7  8  1  6  0  0  0
  7  9  1  0  0  0  0
  9  1  1  0  0  0  0
  9 10  1  1  0  0  0
M  END
$$$$
Fc1ccc2c(c1C)c(=O)cc[nH]2
 OpenBabel07182308452D

 13 14  0  0  1  0  0  0  0  0999 V2000
    7.1488    1.4608    0.0000 F   0  0  0  0  0  0  0  0  0  0  0  0
    4.2364    2.2658    0.0000 O   0  0  0  0  0  0  0  0  0  0  0  0
    4.2364   -0.2092    0.0000 N   0  0  0  0  0  0  0  0  0  0  0  0
    4.9509    0.2033    0.0000 C   0  0  0  0  0  0  0  0  0  0  0  0
    3.5220    0.2033    0.0000 C   0  0  0  0  0  0  0  0  0  0  0  0
    4.9509    1.0283    0.0000 C   0  0  0  0  0  0  0  0  0  0  0  0
    6.4359    0.1861    0.0000 C   0  0  0  0  0  0  0  0  0  0  0  0
    5.6884   -0.2378    0.0000 C   0  0  0  0  0  0  0  0  0  0  0  0
    5.6884    1.4694    0.0000 C   0  0  0  0  0  0  0  0  0  0  0  0
    3.5220    1.0283    0.0000 C   0  0  0  0  0  0  0  0  0  0  0  0
    4.2364    1.4408    0.0000 C   0  0  0  0  0  0  0  0  0  0  0  0
    6.4359    1.0455    0.0000 C   0  0  0  0  0  0  0  0  0  0  0  0
    5.6789    2.2943    0.0000 C   0  0  0  0  0  0  0  0  0  0  0  0
  1 12  1  0  0  0  0
  2 11  2  0  0  0  0
  3  4  1  0  0  0  0
  3  5  1  0  0  0  0
  4  6  1  0  0  0  0
  4  8  2  0  0  0  0
  5 10  2  0  0  0  0
  6  9  2  0  0  0  0
  6 11  1  0  0  0  0
  7  8  1  0  0  0  0
  7 12  2  0  0  0  0
  9 12  1  0  0  0  0
  9 13  1  0  0  0  0
 10 11  1  0  0  0  0
M  END
$$$$
CC1CNCCN1
 OpenBabel07182308452D

  8  8  0  0  1  0  0  0  0  0999 V2000
    7.1488   -0.2291    0.0000 N   0  0  0  0  0  0  0  0  0  0  0  0
    8.5746   -1.0596    0.0000 N   0  0  0  0  0  0  0  0  0  0  0  0
    7.1456   -1.0541    0.0000 C   0  0  0  0  0  0  0  0  0  0  0  0
    7.8585   -1.4693    0.0000 C   0  0  3  0  0  0  0  0  0  0  0  0
    7.8649    0.1806    0.0000 C   0  0  0  0  0  0  0  0  0  0  0  0
    8.5778   -0.2346    0.0000 C   0  0  0  0  0  0  0  0  0  0  0  0
    7.8553   -2.2943    0.0000 C   0  0  0  0  0  0  0  0  0  0  0  0
    9.4559   -1.5730    0.0000 H   0  0  0  0  0  0  0  0  0  0  0  0
  1  3  1  0  0  0  0
  1  5  1  0  0  0  0
  2  4  1  0  0  0  0
  2  6  1  0  0  0  0
  2  8  1  0  0  0  0
  3  4  1  0  0  0  0
  4  7  1  0  0  0  0
  5  6  1  0  0  0  0
M  END
$$$$
C#C[C@]1(O)CC[C@@H]2C1CC[C@H]1[C@H]2CCC2=CC(=O)CC[C@H]12
 OpenBabel07182308452D

 26 29  0  0  1  0  0  0  0  0999 V2000
    6.6263    1.5550    0.0000 O   0  0  0  0  0  0  0  0  0  0  0  0
    1.6500   -1.9996    0.0000 O   0  0  0  0  0  0  0  0  0  0  0  0
    6.0993    0.5186    0.0000 C   0  0  3  0  0  0  0  0  0  0  0  0
    6.0993   -0.3064    0.0000 C   0  0  2  0  0  0  0  0  0  0  0  0
    5.3849   -0.7189    0.0000 C   0  0  1  0  0  0  0  0  0  0  0  0
    4.6703   -0.3064    0.0000 C   0  0  2  0  0  0  0  0  0  0  0  0
    6.8799    0.7700    0.0000 C   0  0  2  0  0  0  0  0  0  0  0  0
    5.3849    0.9311    0.0000 C   0  0  0  0  0  0  0  0  0  0  0  0
    6.8799   -0.5579    0.0000 C   0  0  0  0  0  0  0  0  0  0  0  0
    4.6703    0.5186    0.0000 C   0  0  0  0  0  0  0  0  0  0  0  0
    3.9196   -0.7246    0.0000 C   0  0  2  0  0  0  0  0  0  0  0  0
    7.3614    0.1061    0.0000 C   0  0  0  0  0  0  0  0  0  0  0  0
    5.3981   -1.5782    0.0000 C   0  0  0  0  0  0  0  0  0  0  0  0
    4.6572   -2.0136    0.0000 C   0  0  0  0  0  0  0  0  0  0  0  0
    3.9130   -1.5839    0.0000 C   0  0  0  0  0  0  0  0  0  0  0  0
    3.1550   -0.2592    0.0000 C   0  0  0  0  0  0  0  0  0  0  0  0
    7.5482    1.2538    0.0000 C   0  0  0  0  0  0  0  0  0  0  0  0
    2.3729   -0.6948    0.0000 C   0  0  0  0  0  0  0  0  0  0  0  0
    3.1413   -2.0374    0.0000 C   0  0  0  0  0  0  0  0  0  0  0  0
    2.3660   -1.5899    0.0000 C   0  0  0  0  0  0  0  0  0  0  0  0
    8.2165    1.7375    0.0000 C   0  0  0  0  0  0  0  0  0  0  0  0
    6.1691   -0.9628    0.0000 H   0  0  0  0  0  0  0  0  0  0  0  0
    5.9589   -1.0445    0.0000 H   0  0  0  0  0  0  0  0  0  0  0  0
    5.2420    0.0236    0.0000 H   0  0  0  0  0  0  0  0  0  0  0  0
    3.9323   -0.0647    0.0000 H   0  0  0  0  0  0  0  0  0  0  0  0
    7.2766    2.2748    0.0000 H   0  0  0  0  0  0  0  0  0  0  0  0
  1 26  1  0  0  0  0
  2 20  2  0  0  0  0
  3  4  1  0  0  0  0
  3  7  1  0  0  0  0
  3  8  1  0  0  0  0
  4  5  1  1  0  0  0
  4  9  1  0  0  0  0
  4 22  1  0  0  0  0
  5  6  1  1  0  0  0
  5 13  1  0  0  0  0
  5 23  1  0  0  0  0
  6 10  1  0  0  0  0
  6 11  1  6  0  0  0
  6 24  1  0  0  0  0
  7  1  1  0  0  0  0
  7 12  1  0  0  0  0
  7 17  1  6  0  0  0
  8 10  1  0  0  0  0
  9 12  1  0  0  0  0
 11 15  1  0  0  0  0
 11 16  1  0  0  0  0
 11 25  1  1  0  0  0
 13 14  1  0  0  0  0
 14 15  1  0  0  0  0
 15 19  2  0  0  0  0
 16 18  1  0  0  0  0
 17 21  3  0  0  0  0
 18 20  1  0  0  0  0
 19 20  1  0  0  0  0
M  END
$$$$
CP(=O)(O)O
 OpenBabel07182308452D

  7  6  0  0  1  0  0  0  0  0999 V2000
    4.5080   -2.4751    0.0000 P   0  0  0  0  0  0  0  0  0  0  0  0
    4.5080   -3.3001    0.0000 O   0  0  0  0  0  0  0  0  0  0  0  0
    5.3330   -2.4751    0.0000 O   0  0  0  0  0  0  0  0  0  0  0  0
    3.6830   -2.4751    0.0000 O   0  0  0  0  0  0  0  0  0  0  0  0
    4.5080   -1.6500    0.0000 C   0  0  0  0  0  0  0  0  0  0  0  0
    3.6680   -3.7851    0.0000 H   0  0  0  0  0  0  0  0  0  0  0  0
    5.8180   -3.3151    0.0000 H   0  0  0  0  0  0  0  0  0  0  0  0
  1  2  1  0  0  0  0
  1  3  1  0  0  0  0
  1  4  2  0  0  0  0
  1  5  1  0  0  0  0
  2  6  1  0  0  0  0
  3  7  1  0  0  0  0
M  END
$$$$
Cn1ccc(nc1=O)N
 OpenBabel07182308452D

 11 11  0  0  1  0  0  0  0  0999 V2000
    1.6500    0.8250    0.0000 O   0  0  0  0  0  0  0  0  0  0  0  0
    3.0791    0.8250    0.0000 N   0  0  0  0  0  0  0  0  0  0  0  0
    2.3645    2.0625    0.0000 N   0  0  0  0  0  0  0  0  0  0  0  0
    3.0791    3.3001    0.0000 N   0  0  0  0  0  0  0  0  0  0  0  0
    3.0791    0.0000    0.0000 C   0  0  0  0  0  0  0  0  0  0  0  0
    3.7935    1.2375    0.0000 C   0  0  0  0  0  0  0  0  0  0  0  0
    2.3645    1.2375    0.0000 C   0  0  0  0  0  0  0  0  0  0  0  0
    3.7935    2.0625    0.0000 C   0  0  0  0  0  0  0  0  0  0  0  0
    3.0791    2.4751    0.0000 C   0  0  0  0  0  0  0  0  0  0  0  0
    3.9317    3.7923    0.0000 H   0  0  0  0  0  0  0  0  0  0  0  0
    2.2265    3.7923    0.0000 H   0  0  0  0  0  0  0  0  0  0  0  0
  1  7  2  0  0  0  0
  2  5  1  0  0  0  0
  2  6  1  0  0  0  0
  2  7  1  0  0  0  0
  3  7  1  0  0  0  0
  3  9  2  0  0  0  0
  4  9  1  0  0  0  0
  4 10  1  0  0  0  0
  4 11  1  0  0  0  0
  6  8  2  0  0  0  0
  8  9  1  0  0  0  0
M  END
$$$$
CN1CCN2C(C1)c1ccccc1Cc1c2nccc1
 OpenBabel07182308452D

 20 23  0  0  1  0  0  0  0  0999 V2000
    3.5989   -0.6297    0.0000 N   0  0  0  0  0  0  0  0  0  0  0  0
    2.2518   -1.5635    0.0000 N   0  0  0  0  0  0  0  0  0  0  0  0
    4.9085   -0.8565    0.0000 N   0  0  0  0  0  0  0  0  0  0  0  0
    2.8852   -0.2861    0.0000 C   0  0  3  0  0  0  0  0  0  0  0  0
    2.1965   -0.7403    0.0000 C   0  0  0  0  0  0  0  0  0  0  0  0
    3.6732   -1.4514    0.0000 C   0  0  0  0  0  0  0  0  0  0  0  0
    2.9951   -1.9214    0.0000 C   0  0  0  0  0  0  0  0  0  0  0  0
    2.7090    0.4861    0.0000 C   0  0  0  0  0  0  0  0  0  0  0  0
    4.3124   -0.2861    0.0000 C   0  0  0  0  0  0  0  0  0  0  0  0
    3.2028    1.1053    0.0000 C   0  0  0  0  0  0  0  0  0  0  0  0
    3.9949    1.1053    0.0000 C   0  0  0  0  0  0  0  0  0  0  0  0
    4.4887    0.4861    0.0000 C   0  0  0  0  0  0  0  0  0  0  0  0
    1.5957   -2.0071    0.0000 C   0  0  0  0  0  0  0  0  0  0  0  0
    1.8914    0.5964    0.0000 C   0  0  0  0  0  0  0  0  0  0  0  0
    2.9133    1.8778    0.0000 C   0  0  0  0  0  0  0  0  0  0  0  0
    5.2732    0.7413    0.0000 C   0  0  0  0  0  0  0  0  0  0  0  0
    1.5841    1.3621    0.0000 C   0  0  0  0  0  0  0  0  0  0  0  0
    2.0984    2.0071    0.0000 C   0  0  0  0  0  0  0  0  0  0  0  0
    5.8823    0.1849    0.0000 C   0  0  0  0  0  0  0  0  0  0  0  0
    5.6987   -0.6195    0.0000 C   0  0  0  0  0  0  0  0  0  0  0  0
  1  4  1  0  0  0  0
  1  6  1  0  0  0  0
  1  9  1  0  0  0  0
  2  5  1  0  0  0  0
  2  7  1  0  0  0  0
  2 13  1  0  0  0  0
  3  9  1  0  0  0  0
  3 20  2  0  0  0  0
  4  5  1  0  0  0  0
  4  8  1  0  0  0  0
  6  7  1  0  0  0  0
  8 10  1  0  0  0  0
  8 14  2  0  0  0  0
  9 12  2  0  0  0  0
 10 11  1  0  0  0  0
 10 15  2  0  0  0  0
 11 12  1  0  0  0  0
 12 16  1  0  0  0  0
 14 17  1  0  0  0  0
 15 18  1  0  0  0  0
 16 19  2  0  0  0  0
 17 18  2  0  0  0  0
 19 20  1  0  0  0  0
M  END
$$$$
Sc1ccc2c(c1)N(C)c1c(S2)cccc1
 OpenBabel07182308452D

 16 18  0  0  0  0  0  0  0  0999 V2000
    5.2216   -2.6666    0.0000 S   0  0  0  0  0  0  0  0  0  0  0  0
    8.1336   -0.9969    0.0000 S   0  0  0  0  0  0  0  0  0  0  0  0
    5.2216   -1.0169    0.0000 N   0  0  0  0  0  0  0  0  0  0  0  0
    5.2216   -0.1920    0.0000 C   0  0  0  0  0  0  0  0  0  0  0  0
    5.9361   -1.4293    0.0000 C   0  0  0  0  0  0  0  0  0  0  0  0
    4.5073   -1.4293    0.0000 C   0  0  0  0  0  0  0  0  0  0  0  0
    5.9361   -2.2542    0.0000 C   0  0  0  0  0  0  0  0  0  0  0  0
    4.5073   -2.2542    0.0000 C   0  0  0  0  0  0  0  0  0  0  0  0
    6.6734   -0.9883    0.0000 C   0  0  0  0  0  0  0  0  0  0  0  0
    3.7699   -0.9883    0.0000 C   0  0  0  0  0  0  0  0  0  0  0  0
    6.6734   -2.6951    0.0000 C   0  0  0  0  0  0  0  0  0  0  0  0
    7.4209   -1.4121    0.0000 C   0  0  0  0  0  0  0  0  0  0  0  0
    3.7699   -2.6951    0.0000 C   0  0  0  0  0  0  0  0  0  0  0  0
    7.4209   -2.2713    0.0000 C   0  0  0  0  0  0  0  0  0  0  0  0
    3.0225   -1.4121    0.0000 C   0  0  0  0  0  0  0  0  0  0  0  0
    3.0225   -2.2713    0.0000 C   0  0  0  0  0  0  0  0  0  0  0  0
  1  7  1  0  0  0  0
  1  8  1  0  0  0  0
  2 12  1  0  0  0  0
  3  4  1  0  0  0  0
  3  5  1  0  0  0  0
  3  6  1  0  0  0  0
  5  7  2  0  0  0  0
  5  9  1  0  0  0  0
  6  8  1  0  0  0  0
  6 10  2  0  0  0  0
  7 11  1  0  0  0  0
  8 13  2  0  0  0  0
  9 12  2  0  0  0  0
 10 15  1  0  0  0  0
 11 14  2  0  0  0  0
 12 14  1  0  0  0  0
 13 16  1  0  0  0  0
 15 16  2  0  0  0  0
M  END
$$$$
Oc1cnsn1
 OpenBabel07182308452D

  6  6  0  0  1  0  0  0  0  0999 V2000
   -0.6548    1.8053    0.0000 C   0  0  0  0  0  0  0  0  0  0  0  0
   -1.3222    2.2902    0.0000 C   0  0  0  0  0  0  0  0  0  0  0  0
   -0.9097    1.0206    0.0000 N   0  0  0  0  0  0  0  0  0  0  0  0
   -1.9897    1.8053    0.0000 N   0  0  0  0  0  0  0  0  0  0  0  0
   -1.3222    3.1152    0.0000 O   0  0  0  0  0  0  0  0  0  0  0  0
   -1.7347    1.0206    0.0000 S   0  0  0  0  0  0  0  0  0  0  0  0
  2  1  1  0  0  0  0
  3  1  2  0  0  0  0
  4  2  2  0  0  0  0
  5  2  1  0  0  0  0
  6  3  1  0  0  0  0
  6  4  1  0  0  0  0
M  END
$$$$
O[C@@H]1C[C@H]2[C@@H]([C@H]1C)Cc1c(C2)c(O)ccc1
 OpenBabel07182308452D

 19 21  0  0  0  0  0  0  0  0999 V2000
    2.9836   -1.8063    0.0000 C   0  0  0  0  0  0  0  0  0  0  0  0
    3.7068   -2.2034    0.0000 C   0  0  0  0  0  0  0  0  0  0  0  0
    4.4123   -1.7757    0.0000 C   0  0  0  0  0  0  0  0  0  0  0  0
    4.3947   -0.9509    0.0000 C   0  0  0  0  0  0  0  0  0  0  0  0
    3.6715   -0.5538    0.0000 C   0  0  0  0  0  0  0  0  0  0  0  0
    2.9660   -0.9815    0.0000 C   0  0  0  0  0  0  0  0  0  0  0  0
    2.2429   -0.5844    0.0000 C   0  0  0  0  0  0  0  0  0  0  0  0
    1.5373   -1.0121    0.0000 C   0  0  2  0  0  0  0  0  0  0  0  0
    1.5550   -1.8369    0.0000 C   0  0  2  0  0  0  0  0  0  0  0  0
    2.2782   -2.2340    0.0000 C   0  0  0  0  0  0  0  0  0  0  0  0
    0.7760   -2.1085    0.0000 C   0  0  2  0  0  0  0  0  0  0  0  0
    0.7474   -0.7740    0.0000 C   0  0  0  0  0  0  0  0  0  0  0  0
    0.2769   -1.4516    0.0000 C   0  0  1  0  0  0  0  0  0  0  0  0
    3.6538    0.2710    0.0000 O   0  0  0  0  0  0  0  0  0  0  0  0
    0.7936   -2.9333    0.0000 C   0  0  0  0  0  0  0  0  0  0  0  0
   -0.5479   -1.4692    0.0000 O   0  0  0  0  0  0  0  0  0  0  0  0
    1.5726   -2.6617    0.0000 H   0  0  0  0  0  0  0  0  0  0  0  0
    1.5197   -0.1872    0.0000 H   0  0  0  0  0  0  0  0  0  0  0  0
   -1.0507   -0.6397    0.0000 H   0  0  0  0  0  0  0  0  0  0  0  0
  1  2  1  0  0  0  0
  1  6  2  0  0  0  0
  1 10  1  0  0  0  0
  2  3  2  0  0  0  0
  3  4  1  0  0  0  0
  4  5  2  0  0  0  0
  5  6  1  0  0  0  0
  5 14  1  0  0  0  0
  6  7  1  0  0  0  0
  7  8  1  0  0  0  0
  8 12  1  0  0  0  0
  8  9  1  1  0  0  0
  8 18  1  0  0  0  0
  9 10  1  0  0  0  0
  9 17  1  1  0  0  0
 11  9  1  1  0  0  0
 11 13  1  0  0  0  0
 11 15  1  0  0  0  0
 12 13  1  0  0  0  0
 13 16  1  6  0  0  0
 16 19  1  0  0  0  0
M  END
$$$$
O=C1NC[C@@H]2c3c1cccc3CCC2
 OpenBabel07182308452D

 15 17  0  0  0  0  0  0  0  0999 V2000
   -1.0717    0.4124    0.0000 C   0  0  0  0  0  0  0  0  0  0  0  0
   -1.0717   -0.4125    0.0000 C   0  0  0  0  0  0  0  0  0  0  0  0
   -1.7863    0.8249    0.0000 C   0  0  0  0  0  0  0  0  0  0  0  0
   -1.7863   -0.8250    0.0000 C   0  0  0  0  0  0  0  0  0  0  0  0
   -2.5008    0.4124    0.0000 C   0  0  0  0  0  0  0  0  0  0  0  0
   -2.5008   -0.4125    0.0000 C   0  0  0  0  0  0  0  0  0  0  0  0
    0.3574    0.4124    0.0000 N   0  0  0  0  0  0  0  0  0  0  0  0
    0.3574   -0.4125    0.0000 C   0  0  0  0  0  0  0  0  0  0  0  0
   -0.3573    0.8249    0.0000 C   0  0  0  0  0  0  0  0  0  0  0  0
   -0.3573   -0.8250    0.0000 C   0  0  1  0  0  0  0  0  0  0  0  0
   -0.3573   -1.6500    0.0000 C   0  0  0  0  0  0  0  0  0  0  0  0
   -1.0718   -2.0625    0.0000 C   0  0  0  0  0  0  0  0  0  0  0  0
   -1.7862   -1.6500    0.0000 C   0  0  0  0  0  0  0  0  0  0  0  0
   -0.3573    1.6501    0.0000 O   0  0  0  0  0  0  0  0  0  0  0  0
    0.3573   -1.2375    0.0000 H   0  0  0  0  0  0  0  0  0  0  0  0
  1  9  1  0  0  0  0
  2  1  1  0  0  0  0
  2 10  1  0  0  0  0
  3  1  2  0  0  0  0
  4  2  2  0  0  0  0
  5  3  1  0  0  0  0
  6  4  1  0  0  0  0
  6  5  2  0  0  0  0
  8  7  1  0  0  0  0
  9  7  1  0  0  0  0
  9 14  2  0  0  0  0
 10  8  1  0  0  0  0
 10 15  1  6  0  0  0
 11 10  1  0  0  0  0
 12 11  1  0  0  0  0
 13 12  1  0  0  0  0
 13  4  1  0  0  0  0
M  END
$$$$
C1CN2CCC1CC2
 OpenBabel07182308452D

  8  9  0  0  0  0  0  0  0  0999 V2000
    1.0718    0.8249    0.0000 C   0  0  0  0  0  0  0  0  0  0  0  0
    1.0718    1.6500    0.0000 C   0  0  0  0  0  0  0  0  0  0  0  0
    1.7864    0.4124    0.0000 C   0  0  3  0  0  0  0  0  0  0  0  0
    1.7864    2.0625    0.0000 N   0  0  3  0  0  0  0  0  0  0  0  0
    2.5008    0.8249    0.0000 C   0  0  0  0  0  0  0  0  0  0  0  0
    2.5008    1.6500    0.0000 C   0  0  0  0  0  0  0  0  0  0  0  0
    1.5080    1.0972    0.0000 C   0  0  0  0  0  0  0  0  0  0  0  0
    2.0962    1.3106    0.0000 C   0  0  0  0  0  0  0  0  0  0  0  0
  2  1  1  0  0  0  0
  3  1  1  0  0  0  0
  3  7  1  0  0  0  0
  4  2  1  0  0  0  0
  5  3  1  0  0  0  0
  6  4  1  0  0  0  0
  6  5  1  0  0  0  0
  7  8  1  0  0  0  0
  8  4  1  0  0  0  0
M  END
$$$$
O=C1CC[C@@]2(C(=C1)C=C[C@@H]1[C@H]2CC[C@]2([C@H]1CCC2)C)C
 OpenBabel07182308452D

 23 26  0  0  1  0  0  0  0  0999 V2000
    1.6499   -2.0649    0.0000 O   0  0  0  0  0  0  0  0  0  0  0  0
    6.0989    0.4532    0.0000 C   0  0  1  0  0  0  0  0  0  0  0  0
    6.0989   -0.3718    0.0000 C   0  0  2  0  0  0  0  0  0  0  0  0
    5.3846   -0.7843    0.0000 C   0  0  1  0  0  0  0  0  0  0  0  0
    4.6700   -0.3718    0.0000 C   0  0  1  0  0  0  0  0  0  0  0  0
    6.8795    0.7046    0.0000 C   0  0  0  0  0  0  0  0  0  0  0  0
    5.3846    0.8656    0.0000 C   0  0  0  0  0  0  0  0  0  0  0  0
    6.8795   -0.6232    0.0000 C   0  0  0  0  0  0  0  0  0  0  0  0
    4.6700    0.4532    0.0000 C   0  0  0  0  0  0  0  0  0  0  0  0
    3.9194   -0.7899    0.0000 C   0  0  1  0  0  0  0  0  0  0  0  0
    7.3609    0.0407    0.0000 C   0  0  0  0  0  0  0  0  0  0  0  0
    6.0989    1.2781    0.0000 C   0  0  0  0  0  0  0  0  0  0  0  0
    5.3978   -1.6435    0.0000 C   0  0  0  0  0  0  0  0  0  0  0  0
    3.9128   -1.6492    0.0000 C   0  0  0  0  0  0  0  0  0  0  0  0
    3.1548   -0.3246    0.0000 C   0  0  0  0  0  0  0  0  0  0  0  0
    3.9257    0.0350    0.0000 C   0  0  0  0  0  0  0  0  0  0  0  0
    4.6569   -2.0789    0.0000 C   0  0  0  0  0  0  0  0  0  0  0  0
    2.3728   -0.7602    0.0000 C   0  0  0  0  0  0  0  0  0  0  0  0
    3.1411   -2.1027    0.0000 C   0  0  0  0  0  0  0  0  0  0  0  0
    2.3659   -1.6552    0.0000 C   0  0  0  0  0  0  0  0  0  0  0  0
    6.1687   -1.0280    0.0000 H   0  0  0  0  0  0  0  0  0  0  0  0
    5.9585   -1.1098    0.0000 H   0  0  0  0  0  0  0  0  0  0  0  0
    5.2417   -0.0418    0.0000 H   0  0  0  0  0  0  0  0  0  0  0  0
  1 20  2  0  0  0  0
  2  3  1  1  0  0  0
  2  6  1  0  0  0  0
  2  7  1  0  0  0  0
  2 12  1  0  0  0  0
  3  4  1  1  0  0  0
  3  8  1  0  0  0  0
  3 21  1  0  0  0  0
  4  5  1  1  0  0  0
  4 13  1  0  0  0  0
  4 22  1  0  0  0  0
  5  9  1  0  0  0  0
  5 10  1  1  0  0  0
  5 23  1  0  0  0  0
  6 11  1  0  0  0  0
  7  9  1  0  0  0  0
  8 11  1  0  0  0  0
 10 14  1  0  0  0  0
 10 15  1  0  0  0  0
 10 16  1  6  0  0  0
 13 17  2  0  0  0  0
 14 17  1  0  0  0  0
 14 19  2  0  0  0  0
 15 18  1  0  0  0  0
 18 20  1  0  0  0  0
 19 20  1  0  0  0  0
M  END
$$$$
O=C1CNCC(=O)N1
 OpenBabel07182308452D

  9  9  0  0  1  0  0  0  0  0999 V2000
    5.2224    2.6813    0.0000 O   0  0  0  0  0  0  0  0  0  0  0  0
    2.3645    2.6813    0.0000 O   0  0  0  0  0  0  0  0  0  0  0  0
    3.7935    1.0313    0.0000 N   0  0  0  0  0  0  0  0  0  0  0  0
    3.7935    2.6813    0.0000 N   0  0  0  0  0  0  0  0  0  0  0  0
    4.5080    1.4438    0.0000 C   0  0  0  0  0  0  0  0  0  0  0  0
    3.0791    1.4438    0.0000 C   0  0  0  0  0  0  0  0  0  0  0  0
    4.5080    2.2688    0.0000 C   0  0  0  0  0  0  0  0  0  0  0  0
    3.0791    2.2688    0.0000 C   0  0  0  0  0  0  0  0  0  0  0  0
    3.7935    3.6658    0.0000 H   0  0  0  0  0  0  0  0  0  0  0  0
  1  7  2  0  0  0  0
  2  8  2  0  0  0  0
  3  5  1  0  0  0  0
  3  6  1  0  0  0  0
  4  7  1  0  0  0  0
  4  8  1  0  0  0  0
  4  9  1  0  0  0  0
  5  7  1  0  0  0  0
  6  8  1  0  0  0  0
M  END
$$$$
CN1CC(=O)NC(=O)C1
 OpenBabel07182308452D

 10 10  0  0  1  0  0  0  0  0999 V2000
    4.5080   -2.6813    0.0000 O   0  0  0  0  0  0  0  0  0  0  0  0
    1.6500   -2.6813    0.0000 O   0  0  0  0  0  0  0  0  0  0  0  0
    3.0791   -1.0313    0.0000 N   0  0  0  0  0  0  0  0  0  0  0  0
    3.0791   -2.6813    0.0000 N   0  0  0  0  0  0  0  0  0  0  0  0
    3.0791   -0.2063    0.0000 C   0  0  0  0  0  0  0  0  0  0  0  0
    3.7935   -1.4438    0.0000 C   0  0  0  0  0  0  0  0  0  0  0  0
    2.3645   -1.4438    0.0000 C   0  0  0  0  0  0  0  0  0  0  0  0
    3.7935   -2.2688    0.0000 C   0  0  0  0  0  0  0  0  0  0  0  0
    2.3645   -2.2688    0.0000 C   0  0  0  0  0  0  0  0  0  0  0  0
    3.0792   -3.6658    0.0000 H   0  0  0  0  0  0  0  0  0  0  0  0
  1  8  2  0  0  0  0
  2  9  2  0  0  0  0
  3  5  1  0  0  0  0
  3  6  1  0  0  0  0
  3  7  1  0  0  0  0
  4  8  1  0  0  0  0
  4  9  1  0  0  0  0
  4 10  1  0  0  0  0
  6  8  1  0  0  0  0
  7  9  1  0  0  0  0
M  END
$$$$
CC1=CCC=C(N1)C
 OpenBabel07182308452D

  9  9  0  0  0  0  0  0  0  0999 V2000
   -0.7110   -0.6902    0.0000 C   0  0  0  0  0  0  0  0  0  0  0  0
    0.0000   -1.1085    0.0000 C   0  0  0  0  0  0  0  0  0  0  0  0
   -1.4221   -1.1085    0.0000 C   0  0  0  0  0  0  0  0  0  0  0  0
    0.0000   -1.9451    0.0000 C   0  0  0  0  0  0  0  0  0  0  0  0
   -1.4221   -1.9451    0.0000 C   0  0  0  0  0  0  0  0  0  0  0  0
   -0.7110   -2.3633    0.0000 N   0  0  0  0  0  0  0  0  0  0  0  0
    0.7110   -2.3633    0.0000 C   0  0  0  0  0  0  0  0  0  0  0  0
   -2.1333   -2.3633    0.0000 C   0  0  0  0  0  0  0  0  0  0  0  0
   -0.7110   -3.3478    0.0000 H   0  0  0  0  0  0  0  0  0  0  0  0
  1  2  1  0  0  0  0
  1  3  1  0  0  0  0
  2  4  2  0  0  0  0
  3  5  2  0  0  0  0
  4  6  1  0  0  0  0
  4  7  1  0  0  0  0
  5  8  1  0  0  0  0
  5  6  1  0  0  0  0
  6  9  1  0  0  0  0
M  END
$$$$
Nc1c2CCCCc2nc2c1cccc2
 OpenBabel07182308452D

 17 19  0  0  0  0  0  0  0  0999 V2000
    3.6958   -1.2972    0.0000 N   0  0  0  0  0  0  0  0  0  0  0  0
    3.6958    1.0790    0.0000 N   0  0  0  0  0  0  0  0  0  0  0  0
    1.5842   -0.0926    0.0000 C   0  0  0  0  0  0  0  0  0  0  0  0
    2.3019    0.3145    0.0000 C   0  0  0  0  0  0  0  0  0  0  0  0
    1.5842   -0.9176    0.0000 C   0  0  0  0  0  0  0  0  0  0  0  0
    3.0099   -0.1091    0.0000 C   0  0  0  0  0  0  0  0  0  0  0  0
    2.3019   -1.3246    0.0000 C   0  0  0  0  0  0  0  0  0  0  0  0
    3.0099   -0.9011    0.0000 C   0  0  0  0  0  0  0  0  0  0  0  0
    3.6958    0.2870    0.0000 C   0  0  0  0  0  0  0  0  0  0  0  0
    4.3819   -0.1091    0.0000 C   0  0  0  0  0  0  0  0  0  0  0  0
    4.3819   -0.9011    0.0000 C   0  0  0  0  0  0  0  0  0  0  0  0
    5.0899    0.3145    0.0000 C   0  0  0  0  0  0  0  0  0  0  0  0
    5.0899   -1.3246    0.0000 C   0  0  0  0  0  0  0  0  0  0  0  0
    5.8076   -0.0926    0.0000 C   0  0  0  0  0  0  0  0  0  0  0  0
    5.8076   -0.9176    0.0000 C   0  0  0  0  0  0  0  0  0  0  0  0
    4.5484    1.5713    0.0000 H   0  0  0  0  0  0  0  0  0  0  0  0
    2.8432    1.5713    0.0000 H   0  0  0  0  0  0  0  0  0  0  0  0
  1  8  2  0  0  0  0
  1 11  1  0  0  0  0
  2  9  1  0  0  0  0
  2 16  1  0  0  0  0
  2 17  1  0  0  0  0
  3  4  1  0  0  0  0
  3  5  1  0  0  0  0
  4  6  1  0  0  0  0
  5  7  1  0  0  0  0
  6  8  1  0  0  0  0
  6  9  2  0  0  0  0
  7  8  1  0  0  0  0
  9 10  1  0  0  0  0
 10 11  1  0  0  0  0
 10 12  2  0  0  0  0
 11 13  2  0  0  0  0
 12 14  1  0  0  0  0
 13 15  1  0  0  0  0
 14 15  2  0  0  0  0
M  END
$$$$
CC1=NCCCN1C
 OpenBabel07182308452D

  8  8  0  0  1  0  0  0  0  0999 V2000
    6.0309   -1.2375    0.0000 N   0  0  0  0  0  0  0  0  0  0  0  0
    4.7934   -1.9520    0.0000 N   0  0  0  0  0  0  0  0  0  0  0  0
    4.7934   -0.5231    0.0000 C   0  0  0  0  0  0  0  0  0  0  0  0
    5.2059   -1.2375    0.0000 C   0  0  0  0  0  0  0  0  0  0  0  0
    6.4434   -1.9520    0.0000 C   0  0  0  0  0  0  0  0  0  0  0  0
    6.0309   -2.6665    0.0000 C   0  0  0  0  0  0  0  0  0  0  0  0
    5.2059   -2.6665    0.0000 C   0  0  0  0  0  0  0  0  0  0  0  0
    6.4434   -0.5231    0.0000 C   0  0  0  0  0  0  0  0  0  0  0  0
  1  4  1  0  0  0  0
  1  5  1  0  0  0  0
  1  8  1  0  0  0  0
  2  4  2  0  0  0  0
  2  7  1  0  0  0  0
  3  4  1  0  0  0  0
  5  6  1  0  0  0  0
  6  7  1  0  0  0  0
M  END
$$$$
Nc1cnc2c(n1)nc(nc2N)N
 OpenBabel07182308452D

 19 20  0  0  0  0  0  0  0  0999 V2000
    4.5079   -0.4720    0.0000 N   0  0  0  0  0  0  0  0  0  0  0  0
    4.5079    1.1780    0.0000 N   0  0  0  0  0  0  0  0  0  0  0  0
    5.9599    1.2066    0.0000 N   0  0  0  0  0  0  0  0  0  0  0  0
    6.7073   -0.0766    0.0000 N   0  0  0  0  0  0  0  0  0  0  0  0
    3.0790    1.1780    0.0000 N   0  0  0  0  0  0  0  0  0  0  0  0
    5.9503   -1.3255    0.0000 N   0  0  0  0  0  0  0  0  0  0  0  0
    7.4202    1.1980    0.0000 N   0  0  0  0  0  0  0  0  0  0  0  0
    3.7934   -0.0595    0.0000 C   0  0  0  0  0  0  0  0  0  0  0  0
    5.2223   -0.0595    0.0000 C   0  0  0  0  0  0  0  0  0  0  0  0
    5.2223    0.7655    0.0000 C   0  0  0  0  0  0  0  0  0  0  0  0
    3.7934    0.7655    0.0000 C   0  0  0  0  0  0  0  0  0  0  0  0
    5.9599   -0.5005    0.0000 C   0  0  0  0  0  0  0  0  0  0  0  0
    6.7073    0.7827    0.0000 C   0  0  0  0  0  0  0  0  0  0  0  0
    3.0790    2.1625    0.0000 H   0  0  0  0  0  0  0  0  0  0  0  0
    2.2264    0.6858    0.0000 H   0  0  0  0  0  0  0  0  0  0  0  0
    5.0920   -1.8078    0.0000 H   0  0  0  0  0  0  0  0  0  0  0  0
    6.7971   -1.8276    0.0000 H   0  0  0  0  0  0  0  0  0  0  0  0
    8.2747    0.7091    0.0000 H   0  0  0  0  0  0  0  0  0  0  0  0
    7.4164    2.1825    0.0000 H   0  0  0  0  0  0  0  0  0  0  0  0
  1  8  2  0  0  0  0
  1  9  1  0  0  0  0
  2 10  1  0  0  0  0
  2 11  2  0  0  0  0
  3 10  2  0  0  0  0
  3 13  1  0  0  0  0
  4 12  1  0  0  0  0
  4 13  2  0  0  0  0
  5 11  1  0  0  0  0
  5 14  1  0  0  0  0
  5 15  1  0  0  0  0
  6 12  1  0  0  0  0
  6 16  1  0  0  0  0
  6 17  1  0  0  0  0
  7 13  1  0  0  0  0
  7 18  1  0  0  0  0
  7 19  1  0  0  0  0
  8 11  1  0  0  0  0
  9 10  1  0  0  0  0
  9 12  2  0  0  0  0
M  END
$$$$
O[C@@H]1C[C@H](O)c2c(C1)c(O)c1c(c2O)C(=O)c2c(C1=O)cccc2
 OpenBabel07182308452D

 28 31  0  0  0  0  0  0  0  0999 V2000
   -5.7136    2.2391    0.0000 C   0  0  0  0  0  0  0  0  0  0  0  0
   -5.7148    1.4112    0.0000 C   0  0  0  0  0  0  0  0  0  0  0  0
   -4.9989    0.9959    0.0000 C   0  0  0  0  0  0  0  0  0  0  0  0
   -5.0007    2.6500    0.0000 C   0  0  0  0  0  0  0  0  0  0  0  0
   -4.2844    2.2427    0.0000 C   0  0  0  0  0  0  0  0  0  0  0  0
   -4.2810    1.4138    0.0000 C   0  0  0  0  0  0  0  0  0  0  0  0
   -3.5647    1.0022    0.0000 C   0  0  0  0  0  0  0  0  0  0  0  0
   -3.5715    2.6604    0.0000 C   0  0  0  0  0  0  0  0  0  0  0  0
   -2.8506    2.2485    0.0000 C   0  0  0  0  0  0  0  0  0  0  0  0
   -2.8481    1.4235    0.0000 C   0  0  0  0  0  0  0  0  0  0  0  0
   -2.1373    1.0129    0.0000 C   0  0  0  0  0  0  0  0  0  0  0  0
   -2.1461    2.6612    0.0000 C   0  0  0  0  0  0  0  0  0  0  0  0
   -3.5759    3.4858    0.0000 O   0  0  0  0  0  0  0  0  0  0  0  0
   -3.5604    0.1767    0.0000 O   0  0  0  0  0  0  0  0  0  0  0  0
   -2.1522    3.4866    0.0000 O   0  0  0  0  0  0  0  0  0  0  0  0
   -2.1339    0.1874    0.0000 O   0  0  0  0  0  0  0  0  0  0  0  0
   -1.4305    2.2583    0.0000 C   0  0  0  0  0  0  0  0  0  0  0  0
   -1.4271    1.4346    0.0000 C   0  0  0  0  0  0  0  0  0  0  0  0
   -0.7152    1.0258    0.0000 C   0  0  2  0  0  0  0  0  0  0  0  0
   -0.0024    1.4406    0.0000 C   0  0  0  0  0  0  0  0  0  0  0  0
   -0.0059    2.2645    0.0000 C   0  0  2  0  0  0  0  0  0  0  0  0
   -0.7223    2.6735    0.0000 C   0  0  0  0  0  0  0  0  0  0  0  0
    0.7054    1.8532    0.0000 O   0  0  0  0  0  0  0  0  0  0  0  0
   -0.7129    0.2003    0.0000 O   0  0  0  0  0  0  0  0  0  0  0  0
   -0.0038    0.6170    0.0000 H   0  0  0  0  0  0  0  0  0  0  0  0
   -1.3442    3.9611    0.0000 H   0  0  0  0  0  0  0  0  0  0  0  0
   -2.9434   -0.2844    0.0000 H   0  0  0  0  0  0  0  0  0  0  0  0
    0.7048    0.8832    0.0000 H   0  0  0  0  0  0  0  0  0  0  0  0
  1  2  2  0  0  0  0
  2  3  1  0  0  0  0
  3  6  2  0  0  0  0
  4  1  1  0  0  0  0
  5  8  1  0  0  0  0
  5  4  2  0  0  0  0
  5  6  1  0  0  0  0
  6  7  1  0  0  0  0
  7 14  2  0  0  0  0
  7 10  1  0  0  0  0
  8 13  2  0  0  0  0
  9  8  1  0  0  0  0
  9 10  2  0  0  0  0
 10 11  1  0  0  0  0
 11 18  2  0  0  0  0
 11 16  1  0  0  0  0
 12  9  1  0  0  0  0
 12 15  1  0  0  0  0
 15 26  1  0  0  0  0
 16 27  1  0  0  0  0
 17 12  2  0  0  0  0
 17 18  1  0  0  0  0
 17 22  1  0  0  0  0
 18 19  1  0  0  0  0
 19 24  1  0  0  0  0
 19 25  1  1  0  0  0
 19 20  1  0  0  0  0
 20 21  1  0  0  0  0
 21 23  1  6  0  0  0
 21 22  1  0  0  0  0
 23 28  1  0  0  0  0
M  END
$$$$
N[C@H]1CCO[C@H]([C@H]1O)C
 OpenBabel07182308452D

 11 11  0  0  0  0  0  0  0  0999 V2000
    0.0037   -0.2082    0.0000 C   0  0  0  0  0  0  0  0  0  0  0  0
    0.0003   -1.0305    0.0000 C   0  0  0  0  0  0  0  0  0  0  0  0
    0.7129   -1.4431    0.0000 C   0  0  1  0  0  0  0  0  0  0  0  0
    1.4297   -1.0296    0.0000 C   0  0  1  0  0  0  0  0  0  0  0  0
    1.4293   -0.2032    0.0000 C   0  0  1  0  0  0  0  0  0  0  0  0
    0.7121    0.2098    0.0000 O   0  0  0  0  0  0  0  0  0  0  0  0
    2.1449    0.2070    0.0000 C   0  0  0  0  0  0  0  0  0  0  0  0
    2.1448   -1.4451    0.0000 O   0  0  0  0  0  0  0  0  0  0  0  0
    0.7122   -2.2688    0.0000 N   0  0  0  0  0  0  0  0  0  0  0  0
    2.1421   -2.4151    0.0000 H   0  0  0  0  0  0  0  0  0  0  0  0
    1.5638   -2.7628    0.0000 H   0  0  0  0  0  0  0  0  0  0  0  0
  1  2  1  0  0  0  0
  1  6  1  0  0  0  0
  2  3  1  0  0  0  0
  3  4  1  0  0  0  0
  3  9  1  1  0  0  0
  4  5  1  0  0  0  0
  4  8  1  1  0  0  0
  5  6  1  0  0  0  0
  5  7  1  1  0  0  0
  8 10  1  0  0  0  0
  9 11  1  0  0  0  0
M  END
$$$$
Cn1cc[nH]c1=S
 OpenBabel07182308452D

  7  7  0  0  0  0  0  0  0  0999 V2000
    4.5311    0.4990    0.0000 S   0  0  0  0  0  0  0  0  0  0  0  0
    3.4916    1.5386    0.0000 N   0  0  0  0  0  0  0  0  0  0  0  0
    3.0791    0.2690    0.0000 N   0  0  0  0  0  0  0  0  0  0  0  0
    3.7465    0.7540    0.0000 C   0  0  0  0  0  0  0  0  0  0  0  0
    2.4115    0.7540    0.0000 C   0  0  0  0  0  0  0  0  0  0  0  0
    2.6666    1.5386    0.0000 C   0  0  0  0  0  0  0  0  0  0  0  0
    3.9764    2.2060    0.0000 C   0  0  0  0  0  0  0  0  0  0  0  0
  1  4  2  0  0  0  0
  2  4  1  0  0  0  0
  2  6  1  0  0  0  0
  2  7  1  0  0  0  0
  3  4  1  0  0  0  0
  3  5  1  0  0  0  0
  5  6  2  0  0  0  0
M  END
$$$$
O[C@H]1CC[C@]2([C@@H](C1)CC[C@@H]1[C@@H]2C[C@@H](O)[C@]2([C@]1(O)CCC2)C)C
 OpenBabel07182308452D

 27 30  0  0  1  0  0  0  0  0999 V2000
   13.3011   -7.7044    0.0000 O   0  0  0  0  0  0  0  0  0  0  0  0
   14.0047   -7.2489    0.0000 C   0  0  2  0  0  0  0  0  0  0  0  0
   14.7192   -7.6614    0.0000 C   0  0  0  0  0  0  0  0  0  0  0  0
   15.4336   -7.2489    0.0000 C   0  0  2  0  0  0  0  0  0  0  0  0
   15.4336   -6.4239    0.0000 C   0  0  2  0  0  0  0  0  0  0  0  0
   14.7192   -6.0114    0.0000 C   0  0  0  0  0  0  0  0  0  0  0  0
   14.0047   -6.4239    0.0000 C   0  0  0  0  0  0  0  0  0  0  0  0
   16.1481   -7.6614    0.0000 C   0  0  0  0  0  0  0  0  0  0  0  0
   16.8626   -7.2489    0.0000 C   0  0  0  0  0  0  0  0  0  0  0  0
   16.8626   -6.4239    0.0000 C   0  0  2  0  0  0  0  0  0  0  0  0
   16.1481   -6.0114    0.0000 C   0  0  2  0  0  0  0  0  0  0  0  0
   17.5770   -6.0114    0.0000 C   0  0  2  0  0  0  0  0  0  0  0  0
   17.5770   -5.1864    0.0000 C   0  0  2  0  0  0  0  0  0  0  0  0
   16.8626   -4.7739    0.0000 C   0  0  1  0  0  0  0  0  0  0  0  0
   16.1481   -5.1864    0.0000 C   0  0  0  0  0  0  0  0  0  0  0  0
   18.3616   -6.2663    0.0000 C   0  0  0  0  0  0  0  0  0  0  0  0
   18.8466   -5.5989    0.0000 C   0  0  0  0  0  0  0  0  0  0  0  0
   18.3616   -4.9315    0.0000 C   0  0  0  0  0  0  0  0  0  0  0  0
   17.5770   -4.3614    0.0000 C   0  0  0  0  0  0  0  0  0  0  0  0
   17.5770   -6.8364    0.0000 O   0  0  0  0  0  0  0  0  0  0  0  0
   16.8626   -5.5989    0.0000 H   0  0  0  0  0  0  0  0  0  0  0  0
   15.4336   -5.5989    0.0000 C   0  0  0  0  0  0  0  0  0  0  0  0
   15.4336   -8.0739    0.0000 H   0  0  0  0  0  0  0  0  0  0  0  0
   16.1481   -6.8364    0.0000 H   0  0  0  0  0  0  0  0  0  0  0  0
   16.8626   -3.9480    0.0000 O   0  0  0  0  0  0  0  0  0  0  0  0
   16.7370   -7.3214    0.0000 H   0  0  0  0  0  0  0  0  0  0  0  0
   17.7026   -3.4630    0.0000 H   0  0  0  0  0  0  0  0  0  0  0  0
  2  1  1  1  0  0  0
  2  3  1  0  0  0  0
  2  7  1  0  0  0  0
  3  4  1  0  0  0  0
  4  5  1  1  0  0  0
  4  8  1  0  0  0  0
  4 23  1  0  0  0  0
  5  6  1  0  0  0  0
  5 11  1  6  0  0  0
  5 22  1  0  0  0  0
  6  7  1  0  0  0  0
  8  9  1  0  0  0  0
  9 10  1  0  0  0  0
 10 11  1  6  0  0  0
 10 21  1  0  0  0  0
 11 15  1  0  0  0  0
 11 24  1  6  0  0  0
 12 10  1  6  0  0  0
 12 16  1  0  0  0  0
 12 20  1  0  0  0  0
 13 12  1  1  0  0  0
 13 18  1  0  0  0  0
 13 19  1  0  0  0  0
 14 13  1  1  0  0  0
 14 15  1  0  0  0  0
 14 25  1  0  0  0  0
 16 17  1  0  0  0  0
 17 18  1  0  0  0  0
 20 26  1  0  0  0  0
 25 27  1  0  0  0  0
M  END
$$$$
C1OC(=O)C=C1
 OpenBabel07182308452D

  6  6  0  0  1  0  0  0  0  0999 V2000
   18.6204   -4.1342    0.0000 C   0  0  0  0  0  0  0  0  0  0  0  0
   19.4518   -4.1509    0.0000 C   0  0  0  0  0  0  0  0  0  0  0  0
   19.7255   -3.3679    0.0000 C   0  0  0  0  0  0  0  0  0  0  0  0
   19.0655   -2.8656    0.0000 O   0  0  0  0  0  0  0  0  0  0  0  0
   18.3839   -3.3380    0.0000 C   0  0  0  0  0  0  0  0  0  0  0  0
   20.5063   -3.1334    0.0000 O   0  0  0  0  0  0  0  0  0  0  0  0
  1  2  2  0  0  0  0
  1  5  1  0  0  0  0
  2  3  1  0  0  0  0
  3  4  1  0  0  0  0
  3  6  2  0  0  0  0
  4  5  1  0  0  0  0
M  END
$$$$
O[C@H]1[C@@H](O)CCO[C@@H]1C
 OpenBabel07182308452D

 10 10  0  0  1  0  0  0  0  0999 V2000
   12.5632   -7.3271    0.0000 C   0  0  0  0  0  0  0  0  0  0  0  0
   12.5632   -6.5021    0.0000 O   0  0  0  0  0  0  0  0  0  0  0  0
   11.8487   -6.0896    0.0000 C   0  0  1  0  0  0  0  0  0  0  0  0
   11.1342   -6.5021    0.0000 C   0  0  2  0  0  0  0  0  0  0  0  0
   11.1342   -7.3271    0.0000 C   0  0  2  0  0  0  0  0  0  0  0  0
   11.8487   -7.7396    0.0000 C   0  0  0  0  0  0  0  0  0  0  0  0
   10.4197   -6.0896    0.0000 O   0  0  0  0  0  0  0  0  0  0  0  0
   10.4197   -7.7396    0.0000 O   0  0  0  0  0  0  0  0  0  0  0  0
   11.8485   -5.2533    0.0000 C   0  0  0  0  0  0  0  0  0  0  0  0
    9.5797   -7.2546    0.0000 H   0  0  0  0  0  0  0  0  0  0  0  0
  1  2  1  0  0  0  0
  1  6  1  0  0  0  0
  2  3  1  0  0  0  0
  3  4  1  0  0  0  0
  3  9  1  1  0  0  0
  4  5  1  0  0  0  0
  4  7  1  6  0  0  0
  5  6  1  0  0  0  0
  5  8  1  6  0  0  0
  8 10  1  0  0  0  0
M  END
$$$$
O[C@H]1CCO[C@@H](C1)C
 OpenBabel07182308452D

  9  9  0  0  1  0  0  0  0  0999 V2000
    9.7053   -6.5021    0.0000 C   0  0  0  0  0  0  0  0  0  0  0  0
    9.7053   -7.3271    0.0000 O   0  0  0  0  0  0  0  0  0  0  0  0
    8.9908   -6.0896    0.0000 C   0  0  0  0  0  0  0  0  0  0  0  0
    8.2764   -6.5021    0.0000 C   0  0  1  0  0  0  0  0  0  0  0  0
    8.2764   -7.3271    0.0000 C   0  0  0  0  0  0  0  0  0  0  0  0
    8.9908   -7.7396    0.0000 C   0  0  1  0  0  0  0  0  0  0  0  0
    7.5618   -6.0896    0.0000 O   0  0  0  0  0  0  0  0  0  0  0  0
    8.9906   -8.5530    0.0000 C   0  0  0  0  0  0  0  0  0  0  0  0
    7.5617   -5.1196    0.0000 H   0  0  0  0  0  0  0  0  0  0  0  0
  1  2  1  0  0  0  0
  1  3  1  0  0  0  0
  2  6  1  0  0  0  0
  3  4  1  0  0  0  0
  4  5  1  0  0  0  0
  4  7  1  1  0  0  0
  5  6  1  0  0  0  0
  6  8  1  6  0  0  0
  7  9  1  0  0  0  0
M  END
$$$$
O[C@H]1C[C@H](O)[C@@H]([C@H](O1)C)O
 OpenBabel07182308452D

 12 12  0  0  1  0  0  0  0  0999 V2000
    6.8474   -6.5021    0.0000 O   0  0  0  0  0  0  0  0  0  0  0  0
    6.8474   -7.3271    0.0000 C   0  0  1  0  0  0  0  0  0  0  0  0
    7.5618   -7.7396    0.0000 O   0  0  0  0  0  0  0  0  0  0  0  0
    6.1330   -6.0896    0.0000 C   0  0  1  0  0  0  0  0  0  0  0  0
    5.4185   -6.5021    0.0000 C   0  0  2  0  0  0  0  0  0  0  0  0
    5.4185   -7.3271    0.0000 C   0  0  2  0  0  0  0  0  0  0  0  0
    6.1330   -7.7396    0.0000 C   0  0  0  0  0  0  0  0  0  0  0  0
    4.7040   -6.0896    0.0000 O   0  0  0  0  0  0  0  0  0  0  0  0
    4.7040   -7.7396    0.0000 O   0  0  0  0  0  0  0  0  0  0  0  0
    6.1330   -5.2532    0.0000 C   0  0  0  0  0  0  0  0  0  0  0  0
    4.7040   -5.1196    0.0000 H   0  0  0  0  0  0  0  0  0  0  0  0
    3.8640   -7.2546    0.0000 H   0  0  0  0  0  0  0  0  0  0  0  0
  1  2  1  0  0  0  0
  1  4  1  0  0  0  0
  2  3  1  1  0  0  0
  2  7  1  0  0  0  0
  4  5  1  0  0  0  0
  4 10  1  1  0  0  0
  5  6  1  0  0  0  0
  5  8  1  6  0  0  0
  6  7  1  0  0  0  0
  6  9  1  6  0  0  0
  8 11  1  0  0  0  0
  9 12  1  0  0  0  0
M  END
$$$$
CN1c2ccccc2Sc2c1cccc2
 OpenBabel07182308452D

 15 17  0  0  1  0  0  0  0  0999 V2000
    3.6958   -2.3625    0.0000 S   0  0  0  0  0  0  0  0  0  0  0  0
    3.6958   -0.7783    0.0000 N   0  0  0  0  0  0  0  0  0  0  0  0
    3.6958    0.0137    0.0000 C   0  0  0  0  0  0  0  0  0  0  0  0
    4.3818   -1.1744    0.0000 C   0  0  0  0  0  0  0  0  0  0  0  0
    3.0099   -1.1744    0.0000 C   0  0  0  0  0  0  0  0  0  0  0  0
    4.3818   -1.9664    0.0000 C   0  0  0  0  0  0  0  0  0  0  0  0
    3.0099   -1.9664    0.0000 C   0  0  0  0  0  0  0  0  0  0  0  0
    2.3018   -0.7509    0.0000 C   0  0  0  0  0  0  0  0  0  0  0  0
    5.0899   -0.7509    0.0000 C   0  0  0  0  0  0  0  0  0  0  0  0
    5.0899   -2.3899    0.0000 C   0  0  0  0  0  0  0  0  0  0  0  0
    2.3018   -2.3899    0.0000 C   0  0  0  0  0  0  0  0  0  0  0  0
    1.5841   -1.1580    0.0000 C   0  0  0  0  0  0  0  0  0  0  0  0
    5.8075   -1.1580    0.0000 C   0  0  0  0  0  0  0  0  0  0  0  0
    1.5841   -1.9830    0.0000 C   0  0  0  0  0  0  0  0  0  0  0  0
    5.8075   -1.9830    0.0000 C   0  0  0  0  0  0  0  0  0  0  0  0
  1  6  1  0  0  0  0
  1  7  1  0  0  0  0
  2  3  1  0  0  0  0
  2  4  1  0  0  0  0
  2  5  1  0  0  0  0
  4  6  1  0  0  0  0
  4  9  2  0  0  0  0
  5  7  1  0  0  0  0
  5  8  2  0  0  0  0
  6 10  2  0  0  0  0
  7 11  2  0  0  0  0
  8 12  1  0  0  0  0
  9 13  1  0  0  0  0
 10 15  1  0  0  0  0
 11 14  1  0  0  0  0
 12 14  2  0  0  0  0
 13 15  2  0  0  0  0
M  END
$$$$
C[C@H]1C[C@@H]2[C@](C1)(C)C[C@@H]([C@]1([C@H]2CCC2=CC(=O)C=C[C@]12C)Cl)O
 OpenBabel07182308452D
Created with ChemWriter - http://chemwriter.com
 26 29  0  0  1  0  0  0  0  0999 V2000
   -0.7145    0.4125    0.0000 C   0  0  1  0  0  0  0  0  0  0  0  0
   -0.7145   -0.4125    0.0000 C   0  0  0  0  0  0  0  0  0  0  0  0
    0.7145   -0.4125    0.0000 C   0  0  0  0  0  0  0  0  0  0  0  0
    0.0000   -0.8250    0.0000 C   0  0  0  0  0  0  0  0  0  0  0  0
    0.0000    0.8250    0.0000 C   0  0  2  0  0  0  0  0  0  0  0  0
    0.7145    0.4125    0.0000 C   0  0  2  0  0  0  0  0  0  0  0  0
    2.6985    1.2375    0.0000 C   0  0  2  0  0  0  0  0  0  0  0  0
    2.2135    0.5700    0.0000 C   0  0  0  0  0  0  0  0  0  0  0  0
    3.5235    1.2375    0.0000 C   0  0  0  0  0  0  0  0  0  0  0  0
    0.0000    1.6500    0.0000 C   0  0  1  0  0  0  0  0  0  0  0  0
   -0.7145    2.0625    0.0000 O   0  0  0  0  0  0  0  0  0  0  0  0
   -1.4290    0.8250    0.0000 C   0  0  0  0  0  0  0  0  0  0  0  0
   -1.4290   -0.8250    0.0000 C   0  0  0  0  0  0  0  0  0  0  0  0
   -2.1434    0.4125    0.0000 C   0  0  0  0  0  0  0  0  0  0  0  0
   -2.1434   -0.4125    0.0000 C   0  0  0  0  0  0  0  0  0  0  0  0
   -2.8579   -0.8250    0.0000 O   0  0  0  0  0  0  0  0  0  0  0  0
    0.0000    0.0000    0.0000 Cl  0  0  0  0  0  0  0  0  0  0  0  0
    0.7145    1.2375    0.0000 H   0  0  0  0  0  0  0  0  0  0  0  0
    1.4289    1.6500    0.0000 C   0  0  1  0  0  0  0  0  0  0  0  0
    1.4289    2.4750    0.0000 C   0  0  0  0  0  0  0  0  0  0  0  0
    1.4289    0.8250    0.0000 C   0  0  2  0  0  0  0  0  0  0  0  0
   -0.7145    1.2375    0.0000 C   0  0  0  0  0  0  0  0  0  0  0  0
    0.7145    2.0625    0.0000 C   0  0  0  0  0  0  0  0  0  0  0  0
    1.4289    0.0000    0.0000 H   0  0  0  0  0  0  0  0  0  0  0  0
    2.2135    1.9049    0.0000 C   0  0  0  0  0  0  0  0  0  0  0  0
   -0.7145    3.0325    0.0000 H   0  0  0  0  0  0  0  0  0  0  0  0
  1 12  1  0  0  0  0
  1 22  1  0  0  0  0
  1  2  1  0  0  0  0
  1  5  1  6  0  0  0
  2 13  2  0  0  0  0
  3  4  1  0  0  0  0
  4  2  1  0  0  0  0
  5 17  1  0  0  0  0
  5  6  1  1  0  0  0
  6  3  1  0  0  0  0
  6 21  1  6  0  0  0
  6 18  1  0  0  0  0
  7  8  1  0  0  0  0
  7  9  1  1  0  0  0
 10  5  1  1  0  0  0
 10 23  1  0  0  0  0
 10 11  1  0  0  0  0
 11 26  1  0  0  0  0
 12 14  2  0  0  0  0
 13 15  1  0  0  0  0
 14 15  1  0  0  0  0
 15 16  2  0  0  0  0
 19 25  1  0  0  0  0
 19 21  1  1  0  0  0
 19 23  1  0  0  0  0
 19 20  1  0  0  0  0
 21  8  1  0  0  0  0
 21 24  1  6  0  0  0
 25  7  1  0  0  0  0
M  END
$$$$
O=C1CC[C@]2(C(=C1)CC[C@@H]1[C@@H]2CC[C@]2([C@H]1CCC2)C)C
 OpenBabel07182308452D

 23 26  0  0  1  0  0  0  0  0999 V2000
    1.6499   -2.0649    0.0000 O   0  0  0  0  0  0  0  0  0  0  0  0
    6.0989   -0.3718    0.0000 C   0  0  2  0  0  0  0  0  0  0  0  0
    6.0989    0.4532    0.0000 C   0  0  1  0  0  0  0  0  0  0  0  0
    5.3846   -0.7843    0.0000 C   0  0  1  0  0  0  0  0  0  0  0  0
    4.6700   -0.3718    0.0000 C   0  0  1  0  0  0  0  0  0  0  0  0
    3.9194   -0.7899    0.0000 C   0  0  2  0  0  0  0  0  0  0  0  0
    6.8795    0.7046    0.0000 C   0  0  0  0  0  0  0  0  0  0  0  0
    5.3846    0.8656    0.0000 C   0  0  0  0  0  0  0  0  0  0  0  0
    4.6700    0.4532    0.0000 C   0  0  0  0  0  0  0  0  0  0  0  0
    6.8795   -0.6232    0.0000 C   0  0  0  0  0  0  0  0  0  0  0  0
    5.3978   -1.6435    0.0000 C   0  0  0  0  0  0  0  0  0  0  0  0
    7.3609    0.0407    0.0000 C   0  0  0  0  0  0  0  0  0  0  0  0
    3.9128   -1.6492    0.0000 C   0  0  0  0  0  0  0  0  0  0  0  0
    6.0989    1.2781    0.0000 C   0  0  0  0  0  0  0  0  0  0  0  0
    4.6569   -2.0789    0.0000 C   0  0  0  0  0  0  0  0  0  0  0  0
    3.1548   -0.3246    0.0000 C   0  0  0  0  0  0  0  0  0  0  0  0
    3.9257    0.0350    0.0000 C   0  0  0  0  0  0  0  0  0  0  0  0
    2.3728   -0.7602    0.0000 C   0  0  0  0  0  0  0  0  0  0  0  0
    3.1411   -2.1027    0.0000 C   0  0  0  0  0  0  0  0  0  0  0  0
    2.3659   -1.6552    0.0000 C   0  0  0  0  0  0  0  0  0  0  0  0
    6.1687   -1.0280    0.0000 H   0  0  0  0  0  0  0  0  0  0  0  0
    5.9585   -1.1098    0.0000 H   0  0  0  0  0  0  0  0  0  0  0  0
    5.2417   -0.0418    0.0000 H   0  0  0  0  0  0  0  0  0  0  0  0
  1 20  2  0  0  0  0
  2  3  1  6  0  0  0
  2 10  1  0  0  0  0
  2 21  1  0  0  0  0
  3  7  1  0  0  0  0
  3  8  1  0  0  0  0
  3 14  1  1  0  0  0
  4  2  1  6  0  0  0
  4 11  1  0  0  0  0
  4 22  1  0  0  0  0
  5  4  1  1  0  0  0
  5  9  1  0  0  0  0
  5 23  1  0  0  0  0
  6  5  1  6  0  0  0
  6 13  1  0  0  0  0
  6 16  1  0  0  0  0
  6 17  1  0  0  0  0
  7 12  1  0  0  0  0
  8  9  1  0  0  0  0
 10 12  1  0  0  0  0
 11 15  1  0  0  0  0
 13 15  1  0  0  0  0
 13 19  2  0  0  0  0
 16 18  1  0  0  0  0
 18 20  1  0  0  0  0
 19 20  1  0  0  0  0
M  END
$$$$
Nc1ccc(cc1)Cl
 OpenBabel07182308452D

  9  9  0  0  0  0  0  0  0  0999 V2000
    1.6500    3.0938    0.0000 Cl  0  0  0  0  0  0  0  0  0  0  0  0
    4.5080    1.4438    0.0000 N   0  0  0  0  0  0  0  0  0  0  0  0
    3.7935    1.8563    0.0000 C   0  0  0  0  0  0  0  0  0  0  0  0
    3.0791    3.0938    0.0000 C   0  0  0  0  0  0  0  0  0  0  0  0
    3.7935    2.6813    0.0000 C   0  0  0  0  0  0  0  0  0  0  0  0
    3.0791    1.4438    0.0000 C   0  0  0  0  0  0  0  0  0  0  0  0
    2.3645    2.6813    0.0000 C   0  0  0  0  0  0  0  0  0  0  0  0
    2.3645    1.8563    0.0000 C   0  0  0  0  0  0  0  0  0  0  0  0
    5.3606    1.9361    0.0000 H   0  0  0  0  0  0  0  0  0  0  0  0
  1  7  1  0  0  0  0
  2  3  1  0  0  0  0
  2  9  1  0  0  0  0
  3  5  2  0  0  0  0
  3  6  1  0  0  0  0
  4  5  1  0  0  0  0
  4  7  2  0  0  0  0
  6  8  2  0  0  0  0
  7  8  1  0  0  0  0
M  END
$$$$
OCP(=O)(O)O
 OpenBabel07182308452D

  9  8  0  0  0  0  0  0  0  0999 V2000
    3.7010   -1.2232    0.0000 P   0  0  0  0  0  0  0  0  0  0  0  0
    2.8760    0.2058    0.0000 O   0  0  0  0  0  0  0  0  0  0  0  0
    4.1135   -1.9376    0.0000 O   0  0  0  0  0  0  0  0  0  0  0  0
    4.4155   -0.8107    0.0000 O   0  0  0  0  0  0  0  0  0  0  0  0
    3.4189   -1.9984    0.0000 O   0  0  0  0  0  0  0  0  0  0  0  0
    3.2885   -0.5087    0.0000 C   0  0  0  0  0  0  0  0  0  0  0  0
    3.3610    1.0458    0.0000 H   0  0  0  0  0  0  0  0  0  0  0  0
    3.6285   -2.7777    0.0000 H   0  0  0  0  0  0  0  0  0  0  0  0
    5.2555   -1.2957    0.0000 H   0  0  0  0  0  0  0  0  0  0  0  0
  1  3  1  0  0  0  0
  1  4  1  0  0  0  0
  1  5  2  0  0  0  0
  1  6  1  0  0  0  0
  2  6  1  0  0  0  0
  2  7  1  0  0  0  0
  3  8  1  0  0  0  0
  4  9  1  0  0  0  0
M  END
$$$$
O=C1C=C[C@]2([C@@H](C1)C)Oc1c(C2=O)cccc1Cl
 OpenBabel07182308452D

 18 20  0  0  1  0  0  0  0  0999 V2000
    5.4278    1.1433    0.0000 Cl  0  0  0  0  0  0  0  0  0  0  0  0
    4.4167   -0.3694    0.0000 O   0  0  0  0  0  0  0  0  0  0  0  0
    2.3169   -0.0602    0.0000 O   0  0  0  0  0  0  0  0  0  0  0  0
    3.7493   -3.3292    0.0000 O   0  0  0  0  0  0  0  0  0  0  0  0
    3.7493   -0.8542    0.0000 C   0  0  2  0  0  0  0  0  0  0  0  0
    3.0348   -1.2667    0.0000 C   0  0  1  0  0  0  0  0  0  0  0  0
    3.0348   -2.0917    0.0000 C   0  0  0  0  0  0  0  0  0  0  0  0
    3.0819   -0.3694    0.0000 C   0  0  0  0  0  0  0  0  0  0  0  0
    4.4637   -1.2667    0.0000 C   0  0  0  0  0  0  0  0  0  0  0  0
    2.2223   -1.4100    0.0000 C   0  0  0  0  0  0  0  0  0  0  0  0
    3.3368    0.4153    0.0000 C   0  0  0  0  0  0  0  0  0  0  0  0
    4.1618    0.4153    0.0000 C   0  0  0  0  0  0  0  0  0  0  0  0
    3.7493   -2.5042    0.0000 C   0  0  0  0  0  0  0  0  0  0  0  0
    4.4637   -2.0917    0.0000 C   0  0  0  0  0  0  0  0  0  0  0  0
    2.8957    1.1528    0.0000 C   0  0  0  0  0  0  0  0  0  0  0  0
    4.6028    1.1528    0.0000 C   0  0  0  0  0  0  0  0  0  0  0  0
    3.3196    1.9003    0.0000 C   0  0  0  0  0  0  0  0  0  0  0  0
    4.1790    1.9003    0.0000 C   0  0  0  0  0  0  0  0  0  0  0  0
  1 16  1  0  0  0  0
  2 12  1  0  0  0  0
  3  8  2  0  0  0  0
  4 13  2  0  0  0  0
  5  2  1  0  0  0  0
  5  8  1  0  0  0  0
  5  9  1  1  0  0  0
  6  5  1  1  0  0  0
  6  7  1  0  0  0  0
  6 10  1  0  0  0  0
  7 13  1  0  0  0  0
  8 11  1  0  0  0  0
  9 14  2  0  0  0  0
 11 12  2  0  0  0  0
 11 15  1  0  0  0  0
 12 16  1  0  0  0  0
 13 14  1  0  0  0  0
 15 17  2  0  0  0  0
 16 18  2  0  0  0  0
 17 18  1  0  0  0  0
M  END
$$$$
O=C1N[C@H](c2c1nccn2)O
 OpenBabel07182308452D

 11 12  0  0  1  0  0  0  0  0999 V2000
    4.1159   -0.4273    0.0000 O   0  0  0  0  0  0  0  0  0  0  0  0
    4.1159   -3.3235    0.0000 O   0  0  0  0  0  0  0  0  0  0  0  0
    4.3412   -1.8754    0.0000 N   0  0  0  0  0  0  0  0  0  0  0  0
    2.3645   -1.0504    0.0000 N   0  0  0  0  0  0  0  0  0  0  0  0
    2.3645   -2.7004    0.0000 N   0  0  0  0  0  0  0  0  0  0  0  0
    3.8597   -1.2115    0.0000 C   0  0  2  0  0  0  0  0  0  0  0  0
    3.0791   -1.4629    0.0000 C   0  0  0  0  0  0  0  0  0  0  0  0
    3.0791   -2.2879    0.0000 C   0  0  0  0  0  0  0  0  0  0  0  0
    3.8597   -2.5393    0.0000 C   0  0  0  0  0  0  0  0  0  0  0  0
    1.6500   -1.4629    0.0000 C   0  0  0  0  0  0  0  0  0  0  0  0
    1.6500   -2.2879    0.0000 C   0  0  0  0  0  0  0  0  0  0  0  0
  2  9  2  0  0  0  0
  3  6  1  0  0  0  0
  3  9  1  0  0  0  0
  4  7  2  0  0  0  0
  4 10  1  0  0  0  0
  5  8  2  0  0  0  0
  5 11  1  0  0  0  0
  6  1  1  6  0  0  0
  6  7  1  0  0  0  0
  7  8  1  0  0  0  0
  8  9  1  0  0  0  0
 10 11  2  0  0  0  0
M  END
$$$$
Clc1cccnc1
 OpenBabel07182308452D

  7  7  0  0  1  0  0  0  0  0999 V2000
    7.6412   -1.8754    0.0000 Cl  0  0  0  0  0  0  0  0  0  0  0  0
    5.5787   -2.5899    0.0000 N   0  0  0  0  0  0  0  0  0  0  0  0
    5.1662   -1.8754    0.0000 C   0  0  0  0  0  0  0  0  0  0  0  0
    5.5787   -1.1610    0.0000 C   0  0  0  0  0  0  0  0  0  0  0  0
    6.4037   -1.1610    0.0000 C   0  0  0  0  0  0  0  0  0  0  0  0
    6.4037   -2.5899    0.0000 C   0  0  0  0  0  0  0  0  0  0  0  0
    6.8162   -1.8754    0.0000 C   0  0  0  0  0  0  0  0  0  0  0  0
  1  7  1  0  0  0  0
  2  3  2  0  0  0  0
  2  6  1  0  0  0  0
  3  4  1  0  0  0  0
  4  5  2  0  0  0  0
  5  7  1  0  0  0  0
  6  7  2  0  0  0  0
M  END
$$$$
Clc1ccc2c(c1)C=NCc1n2c(C)nn1
 OpenBabel07182308452D

 16 18  0  0  0  0  0  0  0  0999 V2000
    1.6500   -0.2321    0.0000 Cl  0  0  0  0  0  0  0  0  0  0  0  0
    4.8159   -1.3269    0.0000 N   0  0  0  0  0  0  0  0  0  0  0  0
    5.2284    0.4805    0.0000 N   0  0  0  0  0  0  0  0  0  0  0  0
    6.1244   -1.5631    0.0000 N   0  0  0  0  0  0  0  0  0  0  0  0
    5.7352   -2.2849    0.0000 N   0  0  0  0  0  0  0  0  0  0  0  0
    4.0726   -0.9689    0.0000 C   0  0  0  0  0  0  0  0  0  0  0  0
    3.8890   -0.1645    0.0000 C   0  0  0  0  0  0  0  0  0  0  0  0
    5.5592   -0.9689    0.0000 C   0  0  0  0  0  0  0  0  0  0  0  0
    4.4034    0.4805    0.0000 C   0  0  0  0  0  0  0  0  0  0  0  0
    5.7428   -0.1645    0.0000 C   0  0  0  0  0  0  0  0  0  0  0  0
    4.9281   -2.1392    0.0000 C   0  0  0  0  0  0  0  0  0  0  0  0
    3.4517   -1.5630    0.0000 C   0  0  0  0  0  0  0  0  0  0  0  0
    3.0718    0.1014    0.0000 C   0  0  0  0  0  0  0  0  0  0  0  0
    2.6286   -1.3160    0.0000 C   0  0  0  0  0  0  0  0  0  0  0  0
    2.4374   -0.4783    0.0000 C   0  0  0  0  0  0  0  0  0  0  0  0
    4.3328   -2.7104    0.0000 C   0  0  0  0  0  0  0  0  0  0  0  0
  1 15  1  0  0  0  0
  2  6  1  0  0  0  0
  2  8  1  0  0  0  0
  2 11  1  0  0  0  0
  3  9  2  0  0  0  0
  3 10  1  0  0  0  0
  4  5  1  0  0  0  0
  4  8  2  0  0  0  0
  5 11  2  0  0  0  0
  6  7  2  0  0  0  0
  6 12  1  0  0  0  0
  7  9  1  0  0  0  0
  7 13  1  0  0  0  0
  8 10  1  0  0  0  0
 11 16  1  0  0  0  0
 12 14  2  0  0  0  0
 13 15  2  0  0  0  0
 14 15  1  0  0  0  0
M  END
$$$$
Brc1ccccc1
 OpenBabel07182308452D

  7  7  0  0  1  0  0  0  0  0999 V2000
    3.7935   -2.8876    0.0000 Br  0  0  0  0  0  0  0  0  0  0  0  0
    3.7935   -0.4125    0.0000 C   0  0  0  0  0  0  0  0  0  0  0  0
    4.5080   -0.8250    0.0000 C   0  0  0  0  0  0  0  0  0  0  0  0
    3.0791   -0.8250    0.0000 C   0  0  0  0  0  0  0  0  0  0  0  0
    4.5080   -1.6500    0.0000 C   0  0  0  0  0  0  0  0  0  0  0  0
    3.0791   -1.6500    0.0000 C   0  0  0  0  0  0  0  0  0  0  0  0
    3.7935   -2.0625    0.0000 C   0  0  0  0  0  0  0  0  0  0  0  0
  1  7  1  0  0  0  0
  2  3  2  0  0  0  0
  2  4  1  0  0  0  0
  3  5  1  0  0  0  0
  4  6  2  0  0  0  0
  5  7  2  0  0  0  0
  6  7  1  0  0  0  0
M  END
$$$$
C=C1C=CC(=[N+](C)C)C=C1
 OpenBabel07182308452D

 10 10  0  0  0  0  0  0  0  0999 V2000
    5.2224   -2.6813    0.0000 N   0  3  0  0  0  0  0  0  0  0  0  0
    5.2224    0.6188    0.0000 C   0  0  0  0  0  0  0  0  0  0  0  0
    5.2224   -0.2063    0.0000 C   0  0  0  0  0  0  0  0  0  0  0  0
    5.9370   -0.6188    0.0000 C   0  0  0  0  0  0  0  0  0  0  0  0
    4.5080   -0.6188    0.0000 C   0  0  0  0  0  0  0  0  0  0  0  0
    5.2224   -1.8563    0.0000 C   0  0  0  0  0  0  0  0  0  0  0  0
    5.9370   -1.4438    0.0000 C   0  0  0  0  0  0  0  0  0  0  0  0
    4.5080   -1.4438    0.0000 C   0  0  0  0  0  0  0  0  0  0  0  0
    4.5080   -3.0938    0.0000 C   0  0  0  0  0  0  0  0  0  0  0  0
    5.9370   -3.0938    0.0000 C   0  0  0  0  0  0  0  0  0  0  0  0
  1  6  2  0  0  0  0
  1  9  1  0  0  0  0
  1 10  1  0  0  0  0
  2  3  2  0  0  0  0
  3  4  1  0  0  0  0
  3  5  1  0  0  0  0
  4  7  2  0  0  0  0
  5  8  2  0  0  0  0
  6  7  1  0  0  0  0
  6  8  1  0  0  0  0
M  CHG  1   1   1
M  END
$$$$
Clc1ccc2c(c1)C=Nc1c(O2)cccc1
 OpenBabel07182308452D

 16 18  0  0  0  0  0  0  0  0999 V2000
    1.5841   -1.1304    0.0000 Cl  0  0  0  0  0  0  0  0  0  0  0  0
    4.6238   -2.1816    0.0000 O   0  0  0  0  0  0  0  0  0  0  0  0
    5.0198   -0.4464    0.0000 N   0  0  0  0  0  0  0  0  0  0  0  0
    4.2277   -0.4464    0.0000 C   0  0  0  0  0  0  0  0  0  0  0  0
    3.7338   -1.0656    0.0000 C   0  0  0  0  0  0  0  0  0  0  0  0
    3.9102   -1.8378    0.0000 C   0  0  0  0  0  0  0  0  0  0  0  0
    5.5136   -1.0656    0.0000 C   0  0  0  0  0  0  0  0  0  0  0  0
    2.9493   -0.8103    0.0000 C   0  0  0  0  0  0  0  0  0  0  0  0
    5.3375   -1.8378    0.0000 C   0  0  0  0  0  0  0  0  0  0  0  0
    3.3140   -2.4082    0.0000 C   0  0  0  0  0  0  0  0  0  0  0  0
    2.3402   -1.3668    0.0000 C   0  0  0  0  0  0  0  0  0  0  0  0
    2.5237   -2.1711    0.0000 C   0  0  0  0  0  0  0  0  0  0  0  0
    6.2983   -0.8103    0.0000 C   0  0  0  0  0  0  0  0  0  0  0  0
    5.9335   -2.4082    0.0000 C   0  0  0  0  0  0  0  0  0  0  0  0
    6.9074   -1.3669    0.0000 C   0  0  0  0  0  0  0  0  0  0  0  0
    6.7237   -2.1712    0.0000 C   0  0  0  0  0  0  0  0  0  0  0  0
  1 11  1  0  0  0  0
  2  6  1  0  0  0  0
  2  9  1  0  0  0  0
  3  4  2  0  0  0  0
  3  7  1  0  0  0  0
  4  5  1  0  0  0  0
  5  6  2  0  0  0  0
  5  8  1  0  0  0  0
  6 10  1  0  0  0  0
  7  9  1  0  0  0  0
  7 13  2  0  0  0  0
  8 11  2  0  0  0  0
  9 14  2  0  0  0  0
 10 12  2  0  0  0  0
 11 12  1  0  0  0  0
 13 15  1  0  0  0  0
 14 16  1  0  0  0  0
 15 16  2  0  0  0  0
M  END
$$$$
O[C@@H]1[C@H](O)CCO[C@H]1C
 OpenBabel07182308452D

 11 11  0  0  1  0  0  0  0  0999 V2000
   10.8277   -9.6141    0.0000 C   0  0  2  0  0  0  0  0  0  0  0  0
   10.8277  -10.4413    0.0000 C   0  0  0  0  0  0  0  0  0  0  0  0
   11.5422  -10.8528    0.0000 C   0  0  0  0  0  0  0  0  0  0  0  0
   12.2568  -10.4413    0.0000 O   0  0  0  0  0  0  0  0  0  0  0  0
   12.2568   -9.6141    0.0000 C   0  0  2  0  0  0  0  0  0  0  0  0
   11.5422   -9.1984    0.0000 C   0  0  2  0  0  0  0  0  0  0  0  0
   10.1138   -9.2047    0.0000 O   0  0  0  0  0  0  0  0  0  0  0  0
   11.5343   -8.3711    0.0000 O   0  0  0  0  0  0  0  0  0  0  0  0
   12.9686   -9.1984    0.0000 C   0  0  0  0  0  0  0  0  0  0  0  0
   10.1110   -8.2347    0.0000 H   0  0  0  0  0  0  0  0  0  0  0  0
   12.3697   -7.8781    0.0000 H   0  0  0  0  0  0  0  0  0  0  0  0
  1  7  1  1  0  0  0
  1  2  1  0  0  0  0
  1  6  1  0  0  0  0
  2  3  1  0  0  0  0
  3  4  1  0  0  0  0
  4  5  1  0  0  0  0
  5  6  1  0  0  0  0
  5  9  1  6  0  0  0
  6  8  1  1  0  0  0
  7 10  1  0  0  0  0
  8 11  1  0  0  0  0
M  END
$$$$
C[C@H]1CO1
 OpenBabel07182308452D

  4  4  0  0  1  0  0  0  0  0999 V2000
    9.4019  -10.4454    0.0000 C   0  0  1  0  0  0  0  0  0  0  0  0
   10.1170  -10.8612    0.0000 C   0  0  0  0  0  0  0  0  0  0  0  0
    8.6845  -10.8602    0.0000 C   0  0  0  0  0  0  0  0  0  0  0  0
    9.4144  -11.2352    0.0000 O   0  0  0  0  0  0  0  0  0  0  0  0
  1  4  1  0  0  0  0
  1  2  1  6  0  0  0
  1  3  1  0  0  0  0
  3  4  1  0  0  0  0
M  END
$$$$
O=C1SC(C(=O)N1)C
 OpenBabel07182308452D

  9  9  0  0  0  0  0  0  0  0999 V2000
    7.2598    0.4956    0.0000 S   0  0  0  0  0  0  0  0  0  0  0  0
    8.0988    2.4586    0.0000 O   0  0  0  0  0  0  0  0  0  0  0  0
    8.4024   -0.4296    0.0000 O   0  0  0  0  0  0  0  0  0  0  0  0
    8.4793    1.0385    0.0000 N   0  0  0  0  0  0  0  0  0  0  0  0
    7.1736    1.3160    0.0000 C   0  0  3  0  0  0  0  0  0  0  0  0
    6.4591    1.7285    0.0000 C   0  0  0  0  0  0  0  0  0  0  0  0
    7.9273    1.6516    0.0000 C   0  0  0  0  0  0  0  0  0  0  0  0
    8.0668    0.3240    0.0000 C   0  0  0  0  0  0  0  0  0  0  0  0
    9.4584    1.1414    0.0000 H   0  0  0  0  0  0  0  0  0  0  0  0
  1  5  1  0  0  0  0
  1  8  1  0  0  0  0
  2  7  2  0  0  0  0
  3  8  2  0  0  0  0
  4  7  1  0  0  0  0
  4  8  1  0  0  0  0
  4  9  1  0  0  0  0
  5  6  1  0  0  0  0
  5  7  1  0  0  0  0
M  END
$$$$
N[C@H]1CCc2c(C1)sc(n2)N
 OpenBabel07182308452D

 14 15  0  0  0  0  0  0  0  0999 V2000
   -0.5893    0.9429    0.0000 C   0  0  0  0  0  0  0  0  0  0  0  0
   -1.3038    0.5304    0.0000 C   0  0  2  0  0  0  0  0  0  0  0  0
   -1.3038   -0.2947    0.0000 C   0  0  0  0  0  0  0  0  0  0  0  0
   -0.5893   -0.7072    0.0000 C   0  0  0  0  0  0  0  0  0  0  0  0
    0.1252   -0.2947    0.0000 C   0  0  0  0  0  0  0  0  0  0  0  0
    0.1252    0.5304    0.0000 C   0  0  0  0  0  0  0  0  0  0  0  0
    0.9098    0.7853    0.0000 S   0  0  0  0  0  0  0  0  0  0  0  0
    0.9098   -0.5496    0.0000 N   0  0  0  0  0  0  0  0  0  0  0  0
    1.3947    0.1178    0.0000 C   0  0  0  0  0  0  0  0  0  0  0  0
   -2.0182    0.9429    0.0000 N   0  0  0  0  0  0  0  0  0  0  0  0
    2.2197    0.1178    0.0000 N   0  0  0  0  0  0  0  0  0  0  0  0
   -2.0182    1.9629    0.0000 H   0  0  0  0  0  0  0  0  0  0  0  0
    2.7119   -0.7348    0.0000 H   0  0  0  0  0  0  0  0  0  0  0  0
    2.7119    0.9704    0.0000 H   0  0  0  0  0  0  0  0  0  0  0  0
  1  2  1  0  0  0  0
  1  6  1  0  0  0  0
  2  3  1  0  0  0  0
  2 10  1  6  0  0  0
  3  4  1  0  0  0  0
  4  5  1  0  0  0  0
  5  8  1  0  0  0  0
  6  5  2  0  0  0  0
  7  6  1  0  0  0  0
  7  9  1  0  0  0  0
  8  9  2  0  0  0  0
  9 11  1  0  0  0  0
 10 12  1  0  0  0  0
 11 13  1  0  0  0  0
 11 14  1  0  0  0  0
M  END
$$$$
NC1CCCCC1
 OpenBabel07182308452D

  8  8  0  0  0  0  0  0  0  0999 V2000
    3.1895    2.0625    0.0000 N   0  0  0  0  0  0  0  0  0  0  0  0
    3.9041    2.4751    0.0000 C   0  0  0  0  0  0  0  0  0  0  0  0
    3.9041    3.3001    0.0000 C   0  0  0  0  0  0  0  0  0  0  0  0
    4.6185    2.0625    0.0000 C   0  0  0  0  0  0  0  0  0  0  0  0
    4.6185    3.7126    0.0000 C   0  0  0  0  0  0  0  0  0  0  0  0
    5.3330    2.4751    0.0000 C   0  0  0  0  0  0  0  0  0  0  0  0
    5.3330    3.3001    0.0000 C   0  0  0  0  0  0  0  0  0  0  0  0
    2.3369    2.5547    0.0000 H   0  0  0  0  0  0  0  0  0  0  0  0
  1  2  1  0  0  0  0
  1  8  1  0  0  0  0
  2  3  1  0  0  0  0
  2  4  1  0  0  0  0
  3  5  1  0  0  0  0
  4  6  1  0  0  0  0
  5  7  1  0  0  0  0
  6  7  1  0  0  0  0
M  END
$$$$
[I-]
 OpenBabel07182308452D

  1  0  0  0  1  0  0  0  0  0999 V2000
    9.1370    3.7174    0.0000 I   0  5  0  0  0  0  0  0  0  0  0  0
M  CHG  1   1  -1
M  END
$$$$
C[N+]1(C)CCc2c3[C@@H]1Cc1ccc(cc1)Oc1cccc4c1[C@@H](Cc1cc(Oc(c3)cc2)ccc1)[N+](CC4)(C)C
 OpenBabel07182308452D

 42 48  0  0  1  0  0  0  0  0999 V2000
    3.4756    6.1314    0.0000 O   0  0  0  0  0  0  0  0  0  0  0  0
    4.8937    3.1151    0.0000 O   0  0  0  0  0  0  0  0  0  0  0  0
    5.4054    7.3406    0.0000 N   0  3  0  0  0  0  0  0  0  0  0  0
    1.3259    1.9379    0.0000 N   0  3  0  0  0  0  0  0  0  0  0  0
    4.6910    6.9282    0.0000 C   0  0  1  0  0  0  0  0  0  0  0  0
    1.9594    2.4662    0.0000 C   0  0  2  0  0  0  0  0  0  0  0  0
    5.4054    8.1657    0.0000 C   0  0  0  0  0  0  0  0  0  0  0  0
    1.4665    1.1251    0.0000 C   0  0  0  0  0  0  0  0  0  0  0  0
    3.9765    7.3406    0.0000 C   0  0  0  0  0  0  0  0  0  0  0  0
    4.6910    8.5782    0.0000 C   0  0  0  0  0  0  0  0  0  0  0  0
    2.7339    2.1817    0.0000 C   0  0  0  0  0  0  0  0  0  0  0  0
    4.4774    6.1314    0.0000 C   0  0  0  0  0  0  0  0  0  0  0  0
    3.9765    8.1657    0.0000 C   0  0  0  0  0  0  0  0  0  0  0  0
    2.2409    0.8405    0.0000 C   0  0  0  0  0  0  0  0  0  0  0  0
    6.2359    7.3406    0.0000 C   0  0  0  0  0  0  0  0  0  0  0  0
    5.8207    6.6214    0.0000 C   0  0  0  0  0  0  0  0  0  0  0  0
    1.8256    3.2736    0.0000 C   0  0  0  0  0  0  0  0  0  0  0  0
    2.8744    1.3688    0.0000 C   0  0  0  0  0  0  0  0  0  0  0  0
    0.5075    1.7963    0.0000 C   0  0  0  0  0  0  0  0  0  0  0  0
    0.7939    2.5760    0.0000 C   0  0  0  0  0  0  0  0  0  0  0  0
    3.2621    6.9282    0.0000 C   0  0  0  0  0  0  0  0  0  0  0  0
    4.8899    5.4169    0.0000 C   0  0  0  0  0  0  0  0  0  0  0  0
    3.3674    2.7100    0.0000 C   0  0  0  0  0  0  0  0  0  0  0  0
    3.2621    8.5782    0.0000 C   0  0  0  0  0  0  0  0  0  0  0  0
    2.2381    3.9880    0.0000 C   0  0  0  0  0  0  0  0  0  0  0  0
    3.6489    1.0842    0.0000 C   0  0  0  0  0  0  0  0  0  0  0  0
    2.5476    7.3406    0.0000 C   0  0  0  0  0  0  0  0  0  0  0  0
    4.1417    2.4253    0.0000 C   0  0  0  0  0  0  0  0  0  0  0  0
    2.5476    8.1657    0.0000 C   0  0  0  0  0  0  0  0  0  0  0  0
    4.2824    1.6125    0.0000 C   0  0  0  0  0  0  0  0  0  0  0  0
    4.4774    4.7025    0.0000 C   0  0  0  0  0  0  0  0  0  0  0  0
    5.7149    5.4169    0.0000 C   0  0  0  0  0  0  0  0  0  0  0  0
    1.8256    4.7025    0.0000 C   0  0  0  0  0  0  0  0  0  0  0  0
    3.0631    3.9880    0.0000 C   0  0  0  0  0  0  0  0  0  0  0  0
    3.0631    5.4169    0.0000 C   0  0  0  0  0  0  0  0  0  0  0  0
    4.8899    3.9880    0.0000 C   0  0  0  0  0  0  0  0  0  0  0  0
    2.2381    5.4169    0.0000 C   0  0  0  0  0  0  0  0  0  0  0  0
    3.4756    4.7025    0.0000 C   0  0  0  0  0  0  0  0  0  0  0  0
    6.1273    4.7025    0.0000 C   0  0  0  0  0  0  0  0  0  0  0  0
    5.7149    3.9880    0.0000 C   0  0  0  0  0  0  0  0  0  0  0  0
    5.2565    6.5056    0.0000 H   0  0  0  0  0  0  0  0  0  0  0  0
    1.2977    2.7122    0.0000 H   0  0  0  0  0  0  0  0  0  0  0  0
  1 21  1  0  0  0  0
  1 35  1  0  0  0  0
  2 28  1  0  0  0  0
  2 36  1  0  0  0  0
  3  5  1  0  0  0  0
  3  7  1  0  0  0  0
  3 15  1  0  0  0  0
  3 16  1  0  0  0  0
  4  6  1  0  0  0  0
  4  8  1  0  0  0  0
  4 19  1  0  0  0  0
  4 20  1  0  0  0  0
  5  9  1  0  0  0  0
  5 12  1  0  0  0  0
  5 41  1  1  0  0  0
  6 11  1  0  0  0  0
  6 17  1  0  0  0  0
  6 42  1  6  0  0  0
  7 10  1  0  0  0  0
  8 14  1  0  0  0  0
  9 13  1  0  0  0  0
  9 21  2  0  0  0  0
 10 13  1  0  0  0  0
 11 18  1  0  0  0  0
 11 23  2  0  0  0  0
 12 22  1  0  0  0  0
 13 24  2  0  0  0  0
 14 18  1  0  0  0  0
 17 25  1  0  0  0  0
 18 26  2  0  0  0  0
 21 27  1  0  0  0  0
 22 31  2  0  0  0  0
 22 32  1  0  0  0  0
 23 28  1  0  0  0  0
 24 29  1  0  0  0  0
 25 33  2  0  0  0  0
 25 34  1  0  0  0  0
 26 30  1  0  0  0  0
 27 29  2  0  0  0  0
 28 30  2  0  0  0  0
 31 36  1  0  0  0  0
 32 39  2  0  0  0  0
 33 37  1  0  0  0  0
 34 38  2  0  0  0  0
 35 37  2  0  0  0  0
 35 38  1  0  0  0  0
 36 40  2  0  0  0  0
 39 40  1  0  0  0  0
M  CHG  2   3   1   4   1
M  END
$$$$
O[C@@H]1CN(C)C[C@@H]([C@H]1O)O
 OpenBabel07182308452D

 13 13  0  0  1  0  0  0  0  0999 V2000
    4.9509   -1.5222    0.0000 O   0  0  0  0  0  0  0  0  0  0  0  0
    3.5220   -2.3472    0.0000 O   0  0  0  0  0  0  0  0  0  0  0  0
    2.0930   -1.5222    0.0000 O   0  0  0  0  0  0  0  0  0  0  0  0
    3.5220    0.1279    0.0000 N   0  0  0  0  0  0  0  0  0  0  0  0
    4.2365   -0.2846    0.0000 C   0  0  0  0  0  0  0  0  0  0  0  0
    4.2365   -1.1096    0.0000 C   0  0  2  0  0  0  0  0  0  0  0  0
    3.5220   -1.5222    0.0000 C   0  0  1  0  0  0  0  0  0  0  0  0
    2.8075   -1.1096    0.0000 C   0  0  2  0  0  0  0  0  0  0  0  0
    2.8075   -0.2846    0.0000 C   0  0  0  0  0  0  0  0  0  0  0  0
    3.5220    0.9529    0.0000 C   0  0  0  0  0  0  0  0  0  0  0  0
    4.9508   -2.4922    0.0000 H   0  0  0  0  0  0  0  0  0  0  0  0
    2.6820   -2.8322    0.0000 H   0  0  0  0  0  0  0  0  0  0  0  0
    1.2529   -1.0373    0.0000 H   0  0  0  0  0  0  0  0  0  0  0  0
  1 11  1  0  0  0  0
  2 12  1  0  0  0  0
  3 13  1  0  0  0  0
  4  5  1  0  0  0  0
  4  9  1  0  0  0  0
  4 10  1  0  0  0  0
  5  6  1  0  0  0  0
  6  1  1  1  0  0  0
  6  7  1  0  0  0  0
  7  2  1  6  0  0  0
  7  8  1  0  0  0  0
  8  3  1  1  0  0  0
  8  9  1  0  0  0  0
M  END
$$$$
O=C1CC[C@]2(C(=C1)C[C@H]([C@@H]1[C@@H]2CC[C@]2([C@H]1CC[C@]12CCC(=O)O1)C)S)C
 OpenBabel07182308452D

 30 34  0  0  1  0  0  0  0  0999 V2000
    3.0788   -0.3101    0.0000 S   0  0  0  0  0  0  0  0  0  0  0  0
    5.9017   -2.2620    0.0000 O   0  0  0  0  0  0  0  0  0  0  0  0
    7.0427   -3.1892    0.0000 O   0  0  0  0  0  0  0  0  0  0  0  0
    5.2976    3.5672    0.0000 O   0  0  0  0  0  0  0  0  0  0  0  0
    5.2537   -1.5451    0.0000 C   0  0  1  0  0  0  0  0  0  0  0  0
    4.5392   -1.1326    0.0000 C   0  0  2  0  0  0  0  0  0  0  0  0
    4.5392   -0.3076    0.0000 C   0  0  1  0  0  0  0  0  0  0  0  0
    5.0811   -2.3468    0.0000 C   0  0  2  0  0  0  0  0  0  0  0  0
    5.2537    0.1049    0.0000 C   0  0  1  0  0  0  0  0  0  0  0  0
    5.9682   -1.1326    0.0000 C   0  0  0  0  0  0  0  0  0  0  0  0
    3.9312   -1.6829    0.0000 C   0  0  0  0  0  0  0  0  0  0  0  0
    5.2670    0.9642    0.0000 C   0  0  2  0  0  0  0  0  0  0  0  0
    5.9682   -0.3076    0.0000 C   0  0  0  0  0  0  0  0  0  0  0  0
    4.2654   -2.4319    0.0000 C   0  0  0  0  0  0  0  0  0  0  0  0
    3.7885    0.1106    0.0000 C   0  0  1  0  0  0  0  0  0  0  0  0
    6.0662   -1.6884    0.0000 C   0  0  0  0  0  0  0  0  0  0  0  0
    4.9082   -3.1535    0.0000 C   0  0  0  0  0  0  0  0  0  0  0  0
    4.5261    1.3996    0.0000 C   0  0  0  0  0  0  0  0  0  0  0  0
    3.7819    0.9699    0.0000 C   0  0  0  0  0  0  0  0  0  0  0  0
    6.0523    1.3937    0.0000 C   0  0  0  0  0  0  0  0  0  0  0  0
    5.9783    0.5462    0.0000 C   0  0  0  0  0  0  0  0  0  0  0  0
    5.6220   -3.5672    0.0000 C   0  0  0  0  0  0  0  0  0  0  0  0
    6.2360   -3.0163    0.0000 C   0  0  0  0  0  0  0  0  0  0  0  0
    6.0661    2.2887    0.0000 C   0  0  0  0  0  0  0  0  0  0  0  0
    4.5192    2.2947    0.0000 C   0  0  0  0  0  0  0  0  0  0  0  0
    5.2944    2.7422    0.0000 C   0  0  0  0  0  0  0  0  0  0  0  0
    3.9360   -0.8649    0.0000 H   0  0  0  0  0  0  0  0  0  0  0  0
    3.9702   -0.6419    0.0000 H   0  0  0  0  0  0  0  0  0  0  0  0
    5.8278    0.4305    0.0000 H   0  0  0  0  0  0  0  0  0  0  0  0
    3.2138    0.4350    0.0000 H   0  0  0  0  0  0  0  0  0  0  0  0
  1 15  1  0  0  0  0
  2 23  1  0  0  0  0
  3 23  2  0  0  0  0
  4 26  2  0  0  0  0
  5  6  1  1  0  0  0
  5 10  1  0  0  0  0
  5 16  1  0  0  0  0
  6  7  1  1  0  0  0
  6 11  1  0  0  0  0
  6 27  1  0  0  0  0
  7  9  1  1  0  0  0
  7 28  1  0  0  0  0
  8  2  1  0  0  0  0
  8  5  1  6  0  0  0
  8 14  1  0  0  0  0
  8 17  1  0  0  0  0
  9 12  1  1  0  0  0
  9 13  1  0  0  0  0
  9 29  1  0  0  0  0
 10 13  1  0  0  0  0
 11 14  1  0  0  0  0
 12 18  1  0  0  0  0
 12 20  1  0  0  0  0
 12 21  1  1  0  0  0
 15  7  1  1  0  0  0
 15 19  1  0  0  0  0
 15 30  1  0  0  0  0
 17 22  1  0  0  0  0
 18 19  1  0  0  0  0
 18 25  2  0  0  0  0
 20 24  1  0  0  0  0
 22 23  1  0  0  0  0
 24 26  1  0  0  0  0
 25 26  1  0  0  0  0
M  END
$$$$
CC1CCCCN1
 OpenBabel07182308452D

  8  8  0  0  1  0  0  0  0  0999 V2000
    5.2224    0.2063    0.0000 N   0  0  0  0  0  0  0  0  0  0  0  0
    4.5080    0.6188    0.0000 C   0  0  3  0  0  0  0  0  0  0  0  0
    4.5080    1.4438    0.0000 C   0  0  0  0  0  0  0  0  0  0  0  0
    3.7935    0.2063    0.0000 C   0  0  0  0  0  0  0  0  0  0  0  0
    5.2224    1.8563    0.0000 C   0  0  0  0  0  0  0  0  0  0  0  0
    5.9370    1.4438    0.0000 C   0  0  0  0  0  0  0  0  0  0  0  0
    5.9370    0.6188    0.0000 C   0  0  0  0  0  0  0  0  0  0  0  0
    5.2223   -0.8137    0.0000 H   0  0  0  0  0  0  0  0  0  0  0  0
  1  2  1  0  0  0  0
  1  7  1  0  0  0  0
  1  8  1  0  0  0  0
  2  3  1  0  0  0  0
  2  4  1  0  0  0  0
  3  5  1  0  0  0  0
  5  6  1  0  0  0  0
  6  7  1  0  0  0  0
M  END
$$$$
Cc1ccc2n(c1)c(C)cn2
 OpenBabel07182308452D

 11 12  0  0  0  0  0  0  0  0999 V2000
    3.7935   -0.9052    0.0000 N   0  0  0  0  0  0  0  0  0  0  0  0
    4.5741   -1.9816    0.0000 N   0  0  0  0  0  0  0  0  0  0  0  0
    4.5741   -0.6538    0.0000 C   0  0  0  0  0  0  0  0  0  0  0  0
    5.0556   -1.3177    0.0000 C   0  0  0  0  0  0  0  0  0  0  0  0
    3.7935   -1.7302    0.0000 C   0  0  0  0  0  0  0  0  0  0  0  0
    4.8305    0.1304    0.0000 C   0  0  0  0  0  0  0  0  0  0  0  0
    3.0791   -0.4927    0.0000 C   0  0  0  0  0  0  0  0  0  0  0  0
    2.3645   -0.9052    0.0000 C   0  0  0  0  0  0  0  0  0  0  0  0
    3.0791   -2.1427    0.0000 C   0  0  0  0  0  0  0  0  0  0  0  0
    2.3645   -1.7302    0.0000 C   0  0  0  0  0  0  0  0  0  0  0  0
    1.6500   -0.4927    0.0000 C   0  0  0  0  0  0  0  0  0  0  0  0
  1  3  1  0  0  0  0
  1  5  1  0  0  0  0
  1  7  1  0  0  0  0
  2  4  1  0  0  0  0
  2  5  2  0  0  0  0
  3  4  2  0  0  0  0
  3  6  1  0  0  0  0
  5  9  1  0  0  0  0
  7  8  2  0  0  0  0
  8 10  1  0  0  0  0
  8 11  1  0  0  0  0
  9 10  2  0  0  0  0
M  END
$$$$
Nc1ncc2c(n1)n(C)cn2
 OpenBabel07182308452D

 13 14  0  0  0  0  0  0  0  0999 V2000
    5.0170   -1.5230    0.0000 N   0  0  0  0  0  0  0  0  0  0  0  0
    5.0170   -2.8509    0.0000 N   0  0  0  0  0  0  0  0  0  0  0  0
    3.5220   -1.3619    0.0000 N   0  0  0  0  0  0  0  0  0  0  0  0
    2.8075   -2.5994    0.0000 N   0  0  0  0  0  0  0  0  0  0  0  0
    2.0930   -1.3619    0.0000 N   0  0  0  0  0  0  0  0  0  0  0  0
    5.2734   -0.7389    0.0000 C   0  0  0  0  0  0  0  0  0  0  0  0
    4.2364   -1.7744    0.0000 C   0  0  0  0  0  0  0  0  0  0  0  0
    5.4985   -2.1869    0.0000 C   0  0  0  0  0  0  0  0  0  0  0  0
    4.2364   -2.5994    0.0000 C   0  0  0  0  0  0  0  0  0  0  0  0
    3.5220   -3.0119    0.0000 C   0  0  0  0  0  0  0  0  0  0  0  0
    2.8075   -1.7744    0.0000 C   0  0  0  0  0  0  0  0  0  0  0  0
    2.0930   -0.3774    0.0000 H   0  0  0  0  0  0  0  0  0  0  0  0
    1.2404   -1.8542    0.0000 H   0  0  0  0  0  0  0  0  0  0  0  0
  1  6  1  0  0  0  0
  1  7  1  0  0  0  0
  1  8  1  0  0  0  0
  2  8  2  0  0  0  0
  2  9  1  0  0  0  0
  3  7  2  0  0  0  0
  3 11  1  0  0  0  0
  4 10  1  0  0  0  0
  4 11  2  0  0  0  0
  5 11  1  0  0  0  0
  5 12  1  0  0  0  0
  5 13  1  0  0  0  0
  7  9  1  0  0  0  0
  9 10  2  0  0  0  0
M  END
$$$$
O[C@H]1OC[C@H]([C@@H]([C@H]1N)O)O
 OpenBabel07182308452D

 14 14  0  0  1  0  0  0  0  0999 V2000
    4.2365   -1.1880    0.0000 O   0  0  0  0  0  0  0  0  0  0  0  0
    2.0930    0.0495    0.0000 O   0  0  0  0  0  0  0  0  0  0  0  0
    2.0930   -1.6005    0.0000 O   0  0  0  0  0  0  0  0  0  0  0  0
    4.9509    0.0495    0.0000 O   0  0  0  0  0  0  0  0  0  0  0  0
    3.5220    0.8745    0.0000 N   0  0  0  0  0  0  0  0  0  0  0  0
    2.8075   -0.3630    0.0000 C   0  0  2  0  0  0  0  0  0  0  0  0
    3.5220    0.0495    0.0000 C   0  0  2  0  0  0  0  0  0  0  0  0
    2.8075   -1.1880    0.0000 C   0  0  1  0  0  0  0  0  0  0  0  0
    3.5220   -1.6005    0.0000 C   0  0  0  0  0  0  0  0  0  0  0  0
    4.2365   -0.3630    0.0000 C   0  0  2  0  0  0  0  0  0  0  0  0
    2.0930    1.0195    0.0000 H   0  0  0  0  0  0  0  0  0  0  0  0
    1.2530   -1.1155    0.0000 H   0  0  0  0  0  0  0  0  0  0  0  0
    5.7910   -0.4355    0.0000 H   0  0  0  0  0  0  0  0  0  0  0  0
    2.6694    1.3668    0.0000 H   0  0  0  0  0  0  0  0  0  0  0  0
  1  9  1  0  0  0  0
  1 10  1  0  0  0  0
  2 11  1  0  0  0  0
  3 12  1  0  0  0  0
  4 13  1  0  0  0  0
  5 14  1  0  0  0  0
  6  2  1  6  0  0  0
  6  7  1  0  0  0  0
  6  8  1  0  0  0  0
  7  5  1  1  0  0  0
  7 10  1  0  0  0  0
  8  3  1  1  0  0  0
  8  9  1  0  0  0  0
 10  4  1  1  0  0  0
M  END
$$$$
N=O
 OpenBabel07182308452D

  2  1  0  0  1  0  0  0  0  0999 V2000
    4.9509    3.3496    0.0000 O   0  0  0  0  0  0  0  0  0  0  0  0
    4.9509    2.5246    0.0000 N   0  0  0  0  0  0  0  0  0  0  0  0
  1  2  2  0  0  0  0
M  END
$$$$
O[C@@H]1CC[C@@H](C1)O
 OpenBabel07182308452D

  9  9  0  0  0  0  0  0  0  0999 V2000
   -4.6990   -1.1001    0.0000 C   0  0  0  0  0  0  0  0  0  0  0  0
   -5.9765   -0.6951    0.0000 C   0  0  0  0  0  0  0  0  0  0  0  0
   -4.7073   -0.2735    0.0000 C   0  0  0  0  0  0  0  0  0  0  0  0
   -5.4880   -1.3631    0.0000 C   0  0  1  0  0  0  0  0  0  0  0  0
   -5.4963   -0.0230    0.0000 C   0  0  1  0  0  0  0  0  0  0  0  0
   -5.9013   -2.0728    0.0000 O   0  0  0  0  0  0  0  0  0  0  0  0
   -5.9139    0.6951    0.0000 O   0  0  0  0  0  0  0  0  0  0  0  0
   -6.8713   -2.0692    0.0000 H   0  0  0  0  0  0  0  0  0  0  0  0
   -5.4315    1.5367    0.0000 H   0  0  0  0  0  0  0  0  0  0  0  0
  2  4  1  0  0  0  0
  3  1  1  0  0  0  0
  4  6  1  6  0  0  0
  4  1  1  0  0  0  0
  5  3  1  0  0  0  0
  5  7  1  6  0  0  0
  5  2  1  0  0  0  0
  6  8  1  0  0  0  0
  7  9  1  0  0  0  0
M  END
$$$$
C/C=C\C
 OpenBabel07182308452D

  4  3  0  0  0  0  0  0  0  0999 V2000
   -3.9975    0.9707    0.0000 C   0  0  0  0  0  0  0  0  0  0  0  0
   -3.2836    1.3922    0.0000 C   0  0  0  0  0  0  0  0  0  0  0  0
   -3.9933    0.1440    0.0000 C   0  0  0  0  0  0  0  0  0  0  0  0
   -2.5696    0.9789    0.0000 C   0  0  0  0  0  0  0  0  0  0  0  0
  1  3  1  0  0  0  0
  2  1  2  0  0  0  0
  4  2  1  0  0  0  0
M  END
$$$$
Oc1ccnc(c1)C
 OpenBabel07182308452D

  9  9  0  0  0  0  0  0  0  0999 V2000
   -3.9232   -0.6187    0.0000 C   0  0  0  0  0  0  0  0  0  0  0  0
   -4.6376   -0.2062    0.0000 C   0  0  0  0  0  0  0  0  0  0  0  0
   -3.9232   -1.4437    0.0000 C   0  0  0  0  0  0  0  0  0  0  0  0
   -4.6376   -1.8562    0.0000 N   0  0  0  0  0  0  0  0  0  0  0  0
   -5.3522   -0.6187    0.0000 C   0  0  0  0  0  0  0  0  0  0  0  0
   -5.3522   -1.4437    0.0000 C   0  0  0  0  0  0  0  0  0  0  0  0
   -4.6376    0.6187    0.0000 O   0  0  0  0  0  0  0  0  0  0  0  0
   -6.0666   -1.8562    0.0000 C   0  0  0  0  0  0  0  0  0  0  0  0
   -3.8261    1.0872    0.0000 H   0  0  0  0  0  0  0  0  0  0  0  0
  2  1  2  0  0  0  0
  3  1  1  0  0  0  0
  4  3  2  0  0  0  0
  5  2  1  0  0  0  0
  6  4  1  0  0  0  0
  6  5  2  0  0  0  0
  7  2  1  0  0  0  0
  7  9  1  0  0  0  0
  8  6  1  0  0  0  0
M  END
$$$$
Cl[C@@H]1[C@H](Cl)[C@@H](Cl)[C@@H]([C@@H]([C@H]1Cl)Cl)Cl
 OpenBabel07182308452D

 12 12  0  0  1  0  0  0  0  0999 V2000
   -0.7145   -0.4125    0.0000 C   0  0  2  0  0  0  0  0  0  0  0  0
    0.0000   -0.8250    0.0000 C   0  0  2  0  0  0  0  0  0  0  0  0
    0.7145   -0.4125    0.0000 C   0  0  1  0  0  0  0  0  0  0  0  0
   -0.7145    0.4125    0.0000 C   0  0  2  0  0  0  0  0  0  0  0  0
    0.7145    0.4125    0.0000 C   0  0  1  0  0  0  0  0  0  0  0  0
    0.0000    0.8250    0.0000 C   0  0  1  0  0  0  0  0  0  0  0  0
    1.4289   -0.8250    0.0000 Cl  0  0  0  0  0  0  0  0  0  0  0  0
    0.0000    1.6500    0.0000 Cl  0  0  0  0  0  0  0  0  0  0  0  0
   -1.4289   -0.8250    0.0000 Cl  0  0  0  0  0  0  0  0  0  0  0  0
    0.0000   -1.6500    0.0000 Cl  0  0  0  0  0  0  0  0  0  0  0  0
   -1.4289    0.8250    0.0000 Cl  0  0  0  0  0  0  0  0  0  0  0  0
    1.4289    0.8250    0.0000 Cl  0  0  0  0  0  0  0  0  0  0  0  0
  1  9  1  1  0  0  0
  2  1  1  0  0  0  0
  2 10  1  6  0  0  0
  3  2  1  0  0  0  0
  3  7  1  1  0  0  0
  4  1  1  0  0  0  0
  4 11  1  1  0  0  0
  5  3  1  0  0  0  0
  5  6  1  0  0  0  0
  5 12  1  1  0  0  0
  6  4  1  0  0  0  0
  6  8  1  6  0  0  0
M  END
$$$$
O=c1cc[nH]c(=O)[nH]1
 OpenBabel07182308452D

  9  9  0  0  1  0  0  0  0  0999 V2000
    1.6500    0.3073    0.0000 O   0  0  0  0  0  0  0  0  0  0  0  0
    3.0791    2.7824    0.0000 O   0  0  0  0  0  0  0  0  0  0  0  0
    3.0791    0.3073    0.0000 N   0  0  0  0  0  0  0  0  0  0  0  0
    2.3645    1.5448    0.0000 N   0  0  0  0  0  0  0  0  0  0  0  0
    3.7935    0.7198    0.0000 C   0  0  0  0  0  0  0  0  0  0  0  0
    2.3645    0.7198    0.0000 C   0  0  0  0  0  0  0  0  0  0  0  0
    3.7935    1.5448    0.0000 C   0  0  0  0  0  0  0  0  0  0  0  0
    3.0791    1.9574    0.0000 C   0  0  0  0  0  0  0  0  0  0  0  0
    1.5119    2.0370    0.0000 H   0  0  0  0  0  0  0  0  0  0  0  0
  1  6  2  0  0  0  0
  2  8  2  0  0  0  0
  3  5  1  0  0  0  0
  3  6  1  0  0  0  0
  4  6  1  0  0  0  0
  4  8  1  0  0  0  0
  4  9  1  0  0  0  0
  5  7  2  0  0  0  0
  7  8  1  0  0  0  0
M  END
$$$$
Clc1ccc2c(c1)N(C)c1c(S2)cccc1
 OpenBabel07182308452D

 16 18  0  0  0  0  0  0  0  0999 V2000
    7.8100   -0.9572    0.0000 Cl  0  0  0  0  0  0  0  0  0  0  0  0
    5.0139   -2.5606    0.0000 S   0  0  0  0  0  0  0  0  0  0  0  0
    5.0139   -0.9764    0.0000 N   0  0  0  0  0  0  0  0  0  0  0  0
    5.0139   -0.1844    0.0000 C   0  0  0  0  0  0  0  0  0  0  0  0
    5.6999   -1.3725    0.0000 C   0  0  0  0  0  0  0  0  0  0  0  0
    4.3280   -1.3725    0.0000 C   0  0  0  0  0  0  0  0  0  0  0  0
    5.6999   -2.1645    0.0000 C   0  0  0  0  0  0  0  0  0  0  0  0
    4.3280   -2.1645    0.0000 C   0  0  0  0  0  0  0  0  0  0  0  0
    6.4080   -0.9489    0.0000 C   0  0  0  0  0  0  0  0  0  0  0  0
    3.6199   -0.9489    0.0000 C   0  0  0  0  0  0  0  0  0  0  0  0
    6.4080   -2.5879    0.0000 C   0  0  0  0  0  0  0  0  0  0  0  0
    3.6199   -2.5879    0.0000 C   0  0  0  0  0  0  0  0  0  0  0  0
    7.1257   -1.3560    0.0000 C   0  0  0  0  0  0  0  0  0  0  0  0
    2.9022   -1.3560    0.0000 C   0  0  0  0  0  0  0  0  0  0  0  0
    7.1257   -2.1810    0.0000 C   0  0  0  0  0  0  0  0  0  0  0  0
    2.9022   -2.1810    0.0000 C   0  0  0  0  0  0  0  0  0  0  0  0
  1 13  1  0  0  0  0
  2  7  1  0  0  0  0
  2  8  1  0  0  0  0
  3  4  1  0  0  0  0
  3  5  1  0  0  0  0
  3  6  1  0  0  0  0
  5  7  2  0  0  0  0
  5  9  1  0  0  0  0
  6  8  1  0  0  0  0
  6 10  2  0  0  0  0
  7 11  1  0  0  0  0
  8 12  2  0  0  0  0
  9 13  2  0  0  0  0
 10 14  1  0  0  0  0
 11 15  2  0  0  0  0
 12 16  1  0  0  0  0
 13 15  1  0  0  0  0
 14 16  2  0  0  0  0
M  END
$$$$
CN1CCC(=C2c3ccccc3C=Cc3c2cccc3)CC1
 OpenBabel07182308452D

 22 25  0  0  0  0  0  0  0  0999 V2000
    4.0285   -1.7286    0.0000 N   0  0  0  0  0  0  0  0  0  0  0  0
    4.0285   -0.0786    0.0000 C   0  0  0  0  0  0  0  0  0  0  0  0
    4.7429   -0.4911    0.0000 C   0  0  0  0  0  0  0  0  0  0  0  0
    3.3140   -0.4911    0.0000 C   0  0  0  0  0  0  0  0  0  0  0  0
    4.7429   -1.3161    0.0000 C   0  0  0  0  0  0  0  0  0  0  0  0
    3.3139   -1.3161    0.0000 C   0  0  0  0  0  0  0  0  0  0  0  0
    4.0285    0.7464    0.0000 C   0  0  0  0  0  0  0  0  0  0  0  0
    4.7718    1.1043    0.0000 C   0  0  0  0  0  0  0  0  0  0  0  0
    3.2852    1.1043    0.0000 C   0  0  0  0  0  0  0  0  0  0  0  0
    4.0285   -2.5536    0.0000 C   0  0  0  0  0  0  0  0  0  0  0  0
    4.9554    1.9086    0.0000 C   0  0  0  0  0  0  0  0  0  0  0  0
    3.1016    1.9086    0.0000 C   0  0  0  0  0  0  0  0  0  0  0  0
    5.3926    0.5102    0.0000 C   0  0  0  0  0  0  0  0  0  0  0  0
    2.6643    0.5102    0.0000 C   0  0  0  0  0  0  0  0  0  0  0  0
    4.4410    2.5536    0.0000 C   0  0  0  0  0  0  0  0  0  0  0  0
    3.6160    2.5536    0.0000 C   0  0  0  0  0  0  0  0  0  0  0  0
    5.7725    2.1745    0.0000 C   0  0  0  0  0  0  0  0  0  0  0  0
    2.2844    2.1745    0.0000 C   0  0  0  0  0  0  0  0  0  0  0  0
    6.2157    0.7571    0.0000 C   0  0  0  0  0  0  0  0  0  0  0  0
    1.8412    0.7571    0.0000 C   0  0  0  0  0  0  0  0  0  0  0  0
    6.4070    1.5949    0.0000 C   0  0  0  0  0  0  0  0  0  0  0  0
    1.6500    1.5950    0.0000 C   0  0  0  0  0  0  0  0  0  0  0  0
  1  5  1  0  0  0  0
  1  6  1  0  0  0  0
  1 10  1  0  0  0  0
  2  3  1  0  0  0  0
  2  4  1  0  0  0  0
  2  7  2  0  0  0  0
  3  5  1  0  0  0  0
  4  6  1  0  0  0  0
  7  8  1  0  0  0  0
  7  9  1  0  0  0  0
  8 11  1  0  0  0  0
  8 13  2  0  0  0  0
  9 12  1  0  0  0  0
  9 14  2  0  0  0  0
 11 15  1  0  0  0  0
 11 17  2  0  0  0  0
 12 16  1  0  0  0  0
 12 18  2  0  0  0  0
 13 19  1  0  0  0  0
 14 20  1  0  0  0  0
 15 16  2  0  0  0  0
 17 21  1  0  0  0  0
 18 22  1  0  0  0  0
 19 21  2  0  0  0  0
 20 22  2  0  0  0  0
M  END
$$$$
[N]=O
 OpenBabel07182308452D

  2  1  0  0  0  0  0  0  0  0999 V2000
    0.8250    0.0000    0.0000 N   0  0  0  0  0  0  0  0  0  0  0  0
    0.0000    0.0000    0.0000 O   0  0  0  0  0  0  0  0  0  0  0  0
  2  1  2  0  0  0  0
M  RAD  1   1   2
M  END
$$$$
CC1Nc2ccccc2S(=O)(=O)N1
 OpenBabel07182308452D

 15 16  0  0  1  0  0  0  0  0999 V2000
    3.7934   -1.3862    0.0000 S   0  0  0  0  0  0  0  0  0  0  0  0
    4.2059   -2.1006    0.0000 O   0  0  0  0  0  0  0  0  0  0  0  0
    3.3809   -2.1006    0.0000 O   0  0  0  0  0  0  0  0  0  0  0  0
    3.0790   -0.9737    0.0000 N   0  0  0  0  0  0  0  0  0  0  0  0
    3.7934    0.2638    0.0000 N   0  0  0  0  0  0  0  0  0  0  0  0
    3.0790   -0.1487    0.0000 C   0  0  3  0  0  0  0  0  0  0  0  0
    4.5079   -0.9737    0.0000 C   0  0  0  0  0  0  0  0  0  0  0  0
    4.5079   -0.1487    0.0000 C   0  0  0  0  0  0  0  0  0  0  0  0
    2.3645    0.2638    0.0000 C   0  0  0  0  0  0  0  0  0  0  0  0
    5.2454   -1.4147    0.0000 C   0  0  0  0  0  0  0  0  0  0  0  0
    5.2454    0.2925    0.0000 C   0  0  0  0  0  0  0  0  0  0  0  0
    5.9929   -0.9908    0.0000 C   0  0  0  0  0  0  0  0  0  0  0  0
    5.9929   -0.1315    0.0000 C   0  0  0  0  0  0  0  0  0  0  0  0
    2.1956   -1.4837    0.0000 H   0  0  0  0  0  0  0  0  0  0  0  0
    3.7934    1.2483    0.0000 H   0  0  0  0  0  0  0  0  0  0  0  0
  1  2  2  0  0  0  0
  1  3  2  0  0  0  0
  1  4  1  0  0  0  0
  1  7  1  0  0  0  0
  4  6  1  0  0  0  0
  4 14  1  0  0  0  0
  5  6  1  0  0  0  0
  5  8  1  0  0  0  0
  5 15  1  0  0  0  0
  6  9  1  0  0  0  0
  7  8  2  0  0  0  0
  7 10  1  0  0  0  0
  8 11  1  0  0  0  0
 10 12  2  0  0  0  0
 11 13  2  0  0  0  0
 12 13  1  0  0  0  0
M  END
$$$$
Oc1ncnc2c1cn[nH]2
 OpenBabel07182308452D

 12 13  0  0  0  0  0  0  0  0999 V2000
    1.3492   -0.8250    0.0000 C   0  0  0  0  0  0  0  0  0  0  0  0
   -0.0797   -0.8250    0.0000 C   0  0  0  0  0  0  0  0  0  0  0  0
   -0.0797    0.0000    0.0000 C   0  0  0  0  0  0  0  0  0  0  0  0
   -0.8643   -1.0799    0.0000 N   0  0  0  0  0  0  0  0  0  0  0  0
   -0.8643    0.2549    0.0000 C   0  0  0  0  0  0  0  0  0  0  0  0
   -1.3492   -0.4125    0.0000 N   0  0  0  0  0  0  0  0  0  0  0  0
    0.6347   -1.2375    0.0000 N   0  0  0  0  0  0  0  0  0  0  0  0
    1.3492    0.0000    0.0000 N   0  0  0  0  0  0  0  0  0  0  0  0
    0.6347    0.4125    0.0000 C   0  0  0  0  0  0  0  0  0  0  0  0
    0.6347    1.2375    0.0000 O   0  0  0  0  0  0  0  0  0  0  0  0
   -1.1685   -2.0162    0.0000 H   0  0  0  0  0  0  0  0  0  0  0  0
    1.4462    1.7060    0.0000 H   0  0  0  0  0  0  0  0  0  0  0  0
  1  8  1  0  0  0  0
  2  7  1  0  0  0  0
  3  2  2  0  0  0  0
  4  2  1  0  0  0  0
  4 11  1  0  0  0  0
  5  3  1  0  0  0  0
  5  6  2  0  0  0  0
  6  4  1  0  0  0  0
  7  1  2  0  0  0  0
  9  3  1  0  0  0  0
  9  8  2  0  0  0  0
  9 10  1  0  0  0  0
 10 12  1  0  0  0  0
M  END
$$$$
C[n+]1ccccc1
 OpenBabel07182308452D

  7  7  0  0  1  0  0  0  0  0999 V2000
    3.0790    1.9076    0.0000 N   0  3  0  0  0  0  0  0  0  0  0  0
    3.7934    2.3201    0.0000 C   0  0  0  0  0  0  0  0  0  0  0  0
    3.0790    1.0826    0.0000 C   0  0  0  0  0  0  0  0  0  0  0  0
    2.3644    2.3201    0.0000 C   0  0  0  0  0  0  0  0  0  0  0  0
    2.3644    0.6701    0.0000 C   0  0  0  0  0  0  0  0  0  0  0  0
    1.6500    1.9076    0.0000 C   0  0  0  0  0  0  0  0  0  0  0  0
    1.6500    1.0826    0.0000 C   0  0  0  0  0  0  0  0  0  0  0  0
  1  2  1  0  0  0  0
  1  3  2  0  0  0  0
  1  4  1  0  0  0  0
  3  5  1  0  0  0  0
  4  6  2  0  0  0  0
  5  7  2  0  0  0  0
  6  7  1  0  0  0  0
M  CHG  1   1   1
M  END
$$$$
O[C@@H]1COCC1(F)F
 OpenBabel07182308452D

  9  9  0  0  1  0  0  0  0  0999 V2000
    5.1206   -1.3156    0.0000 F   0  0  0  0  0  0  0  0  0  0  0  0
    4.8209   -0.3932    0.0000 F   0  0  0  0  0  0  0  0  0  0  0  0
    3.0011   -1.0607    0.0000 O   0  0  0  0  0  0  0  0  0  0  0  0
    4.5660   -2.5127    0.0000 O   0  0  0  0  0  0  0  0  0  0  0  0
    4.0810   -1.8453    0.0000 C   0  0  1  0  0  0  0  0  0  0  0  0
    4.3361   -1.0607    0.0000 C   0  0  0  0  0  0  0  0  0  0  0  0
    3.2560   -1.8453    0.0000 C   0  0  0  0  0  0  0  0  0  0  0  0
    3.6685   -0.5758    0.0000 C   0  0  0  0  0  0  0  0  0  0  0  0
    4.1716   -3.3989    0.0000 H   0  0  0  0  0  0  0  0  0  0  0  0
  1  6  1  0  0  0  0
  2  6  1  0  0  0  0
  3  7  1  0  0  0  0
  3  8  1  0  0  0  0
  4  9  1  0  0  0  0
  5  4  1  6  0  0  0
  5  6  1  0  0  0  0
  5  7  1  0  0  0  0
  6  8  1  0  0  0  0
M  END
$$$$
Nc1cc[nH]c(=O)n1
 OpenBabel07182308452D

 10 10  0  0  1  0  0  0  0  0999 V2000
    2.2396    0.2492    0.0000 O   0  0  0  0  0  0  0  0  0  0  0  0
    3.6685    0.2492    0.0000 N   0  0  0  0  0  0  0  0  0  0  0  0
    2.9541    1.4867    0.0000 N   0  0  0  0  0  0  0  0  0  0  0  0
    3.6685    2.7242    0.0000 N   0  0  0  0  0  0  0  0  0  0  0  0
    4.3831    0.6617    0.0000 C   0  0  0  0  0  0  0  0  0  0  0  0
    2.9541    0.6617    0.0000 C   0  0  0  0  0  0  0  0  0  0  0  0
    4.3831    1.4867    0.0000 C   0  0  0  0  0  0  0  0  0  0  0  0
    3.6685    1.8992    0.0000 C   0  0  0  0  0  0  0  0  0  0  0  0
    4.5211    3.2165    0.0000 H   0  0  0  0  0  0  0  0  0  0  0  0
    2.8159    3.2165    0.0000 H   0  0  0  0  0  0  0  0  0  0  0  0
  1  6  2  0  0  0  0
  2  5  1  0  0  0  0
  2  6  1  0  0  0  0
  3  6  1  0  0  0  0
  3  8  2  0  0  0  0
  4  8  1  0  0  0  0
  4  9  1  0  0  0  0
  4 10  1  0  0  0  0
  5  7  2  0  0  0  0
  7  8  1  0  0  0  0
M  END
$$$$
Nc1nc(=O)c2c([nH]1)[nH]cn2
 OpenBabel07182308452D

 14 15  0  0  1  0  0  0  0  0999 V2000
    3.5220   -2.8905    0.0000 O   0  0  0  0  0  0  0  0  0  0  0  0
    5.0170   -0.5766    0.0000 N   0  0  0  0  0  0  0  0  0  0  0  0
    3.5220   -0.4155    0.0000 N   0  0  0  0  0  0  0  0  0  0  0  0
    5.0170   -1.9044    0.0000 N   0  0  0  0  0  0  0  0  0  0  0  0
    2.8075   -1.6530    0.0000 N   0  0  0  0  0  0  0  0  0  0  0  0
    2.0930   -0.4155    0.0000 N   0  0  0  0  0  0  0  0  0  0  0  0
    4.2364   -0.8280    0.0000 C   0  0  0  0  0  0  0  0  0  0  0  0
    5.4985   -1.2405    0.0000 C   0  0  0  0  0  0  0  0  0  0  0  0
    4.2364   -1.6530    0.0000 C   0  0  0  0  0  0  0  0  0  0  0  0
    3.5220   -2.0655    0.0000 C   0  0  0  0  0  0  0  0  0  0  0  0
    2.8075   -0.8280    0.0000 C   0  0  0  0  0  0  0  0  0  0  0  0
    3.5220    0.5690    0.0000 H   0  0  0  0  0  0  0  0  0  0  0  0
    2.0930    0.5690    0.0000 H   0  0  0  0  0  0  0  0  0  0  0  0
    1.2404   -0.9078    0.0000 H   0  0  0  0  0  0  0  0  0  0  0  0
  1 10  2  0  0  0  0
  2  7  1  0  0  0  0
  2  8  1  0  0  0  0
  3  7  1  0  0  0  0
  3 11  1  0  0  0  0
  3 12  1  0  0  0  0
  4  8  2  0  0  0  0
  4  9  1  0  0  0  0
  5 10  1  0  0  0  0
  5 11  2  0  0  0  0
  6 11  1  0  0  0  0
  6 13  1  0  0  0  0
  6 14  1  0  0  0  0
  7  9  2  0  0  0  0
  9 10  1  0  0  0  0
M  END
$$$$
O[C@H]1CCC(=C)C1
 OpenBabel07182308452D

  8  8  0  0  1  0  0  0  0  0999 V2000
    5.0221    2.3275    0.0000 O   0  0  0  0  0  0  0  0  0  0  0  0
    5.2734    0.2076    0.0000 C   0  0  0  0  0  0  0  0  0  0  0  0
    6.0598    1.2862    0.0000 C   0  0  0  0  0  0  0  0  0  0  0  0
    5.2757    1.5425    0.0000 C   0  0  2  0  0  0  0  0  0  0  0  0
    4.7896    0.8759    0.0000 C   0  0  0  0  0  0  0  0  0  0  0  0
    6.0584    0.4612    0.0000 C   0  0  0  0  0  0  0  0  0  0  0  0
    6.7250   -0.0249    0.0000 C   0  0  0  0  0  0  0  0  0  0  0  0
    5.6724    3.0473    0.0000 H   0  0  0  0  0  0  0  0  0  0  0  0
  1  8  1  0  0  0  0
  2  5  1  0  0  0  0
  2  6  1  0  0  0  0
  3  4  1  0  0  0  0
  3  6  1  0  0  0  0
  4  1  1  6  0  0  0
  4  5  1  0  0  0  0
  6  7  2  0  0  0  0
M  END
$$$$
O=C1C=C[C@]2(C(=C1)CC[C@@H]1[C@]2(F)[C@@H](O)C[C@]2([C@H]1C[C@@H]([C@H]2O)C)C)C
 OpenBabel07182308452D

 28 31  0  0  0  0  0  0  0  0999 V2000
   -1.8010   -0.3287    0.0000 C   0  0  0  0  0  0  0  0  0  0  0  0
   -2.5234   -0.7254    0.0000 C   0  0  0  0  0  0  0  0  0  0  0  0
   -2.5234   -1.5642    0.0000 C   0  0  0  0  0  0  0  0  0  0  0  0
   -1.8010   -1.9763    0.0000 C   0  0  0  0  0  0  0  0  0  0  0  0
   -1.1015   -1.5642    0.0000 C   0  0  0  0  0  0  0  0  0  0  0  0
   -0.3867   -1.9763    0.0000 C   0  0  0  0  0  0  0  0  0  0  0  0
   -1.1015   -0.7254    0.0000 C   0  0  2  0  0  0  0  0  0  0  0  0
    0.3437    0.8990    0.0000 C   0  0  0  0  0  0  0  0  0  0  0  0
    1.0433    0.4791    0.0000 C   0  0  1  0  0  0  0  0  0  0  0  0
    1.0433   -0.3287    0.0000 C   0  0  1  0  0  0  0  0  0  0  0  0
    1.8278   -0.5854    0.0000 C   0  0  0  0  0  0  0  0  0  0  0  0
    1.8278    0.7354    0.0000 C   0  0  1  0  0  0  0  0  0  0  0  0
    1.0433    1.3262    0.0000 C   0  0  0  0  0  0  0  0  0  0  0  0
   -1.1015    0.1005    0.0000 C   0  0  0  0  0  0  0  0  0  0  0  0
    1.0433   -1.1603    0.0000 H   0  0  0  0  0  0  0  0  0  0  0  0
   -3.2565   -1.9950    0.0000 O   0  0  0  0  0  0  0  0  0  0  0  0
   -0.3867   -0.3287    0.0000 C   0  0  1  0  0  0  0  0  0  0  0  0
    0.3437   -0.7254    0.0000 C   0  0  1  0  0  0  0  0  0  0  0  0
    0.3437    0.0996    0.0000 H   0  0  0  0  0  0  0  0  0  0  0  0
    0.3437   -1.5642    0.0000 C   0  0  0  0  0  0  0  0  0  0  0  0
   -0.3867   -1.1535    0.0000 F   0  0  0  0  0  0  0  0  0  0  0  0
   -0.3867    0.4791    0.0000 C   0  0  1  0  0  0  0  0  0  0  0  0
   -1.1011    0.8914    0.0000 O   0  0  0  0  0  0  0  0  0  0  0  0
    2.2940    0.0674    0.0000 C   0  0  1  0  0  0  0  0  0  0  0  0
    3.1188    0.0674    0.0000 C   0  0  0  0  0  0  0  0  0  0  0  0
    2.5476    1.1381    0.0000 O   0  0  0  0  0  0  0  0  0  0  0  0
   -1.1013    1.8614    0.0000 H   0  0  0  0  0  0  0  0  0  0  0  0
    3.3810    0.6418    0.0000 H   0  0  0  0  0  0  0  0  0  0  0  0
  1  7  1  0  0  0  0
  2  1  2  0  0  0  0
  3  4  1  0  0  0  0
  3  2  1  0  0  0  0
  3 16  2  0  0  0  0
  4  5  2  0  0  0  0
  5  7  1  0  0  0  0
  6 20  1  0  0  0  0
  6  5  1  0  0  0  0
  7 17  1  6  0  0  0
  7 14  1  0  0  0  0
  8  9  1  0  0  0  0
  9 10  1  1  0  0  0
  9 13  1  0  0  0  0
 10 18  1  1  0  0  0
 10 15  1  0  0  0  0
 11 10  1  0  0  0  0
 12  9  1  6  0  0  0
 12 26  1  0  0  0  0
 17 18  1  1  0  0  0
 17 21  1  0  0  0  0
 18 19  1  1  0  0  0
 20 18  1  0  0  0  0
 22 17  1  1  0  0  0
 22  8  1  0  0  0  0
 22 23  1  0  0  0  0
 23 27  1  0  0  0  0
 24 12  1  0  0  0  0
 24 11  1  0  0  0  0
 24 25  1  1  0  0  0
 26 28  1  0  0  0  0
M  END
$$$$
O=C1OC[C@H]2[C@H]1Cc1cc3OCOc3cc1C2
 OpenBabel07182308452D

 19 22  0  0  0  0  0  0  0  0999 V2000
   -0.3468    0.2834    0.0000 C   0  0  2  0  0  0  0  0  0  0  0  0
   -1.0595    0.6962    0.0000 C   0  0  0  0  0  0  0  0  0  0  0  0
   -1.7750    0.2834    0.0000 C   0  0  0  0  0  0  0  0  0  0  0  0
   -1.7750   -0.5422    0.0000 C   0  0  0  0  0  0  0  0  0  0  0  0
   -0.3468   -0.5422    0.0000 C   0  0  1  0  0  0  0  0  0  0  0  0
   -1.0595   -0.9549    0.0000 C   0  0  0  0  0  0  0  0  0  0  0  0
    0.4375   -0.7981    0.0000 C   0  0  0  0  0  0  0  0  0  0  0  0
   -2.4933    0.6962    0.0000 C   0  0  0  0  0  0  0  0  0  0  0  0
   -2.4933   -0.9549    0.0000 C   0  0  0  0  0  0  0  0  0  0  0  0
    0.9191   -0.1293    0.0000 O   0  0  0  0  0  0  0  0  0  0  0  0
    0.4375    0.5394    0.0000 C   0  0  0  0  0  0  0  0  0  0  0  0
   -3.2061    0.2834    0.0000 C   0  0  0  0  0  0  0  0  0  0  0  0
   -3.2061   -0.5422    0.0000 C   0  0  0  0  0  0  0  0  0  0  0  0
   -3.9905    0.5394    0.0000 O   0  0  0  0  0  0  0  0  0  0  0  0
   -3.9905   -0.7981    0.0000 O   0  0  0  0  0  0  0  0  0  0  0  0
   -4.4748   -0.1293    0.0000 C   0  0  0  0  0  0  0  0  0  0  0  0
    0.6907   -1.5824    0.0000 O   0  0  0  0  0  0  0  0  0  0  0  0
   -0.2587   -1.3595    0.0000 H   0  0  0  0  0  0  0  0  0  0  0  0
   -0.2587    1.1036    0.0000 H   0  0  0  0  0  0  0  0  0  0  0  0
  1  5  1  6  0  0  0
  1 19  1  0  0  0  0
  2  1  1  0  0  0  0
  3  2  1  0  0  0  0
  3  4  2  0  0  0  0
  4  6  1  0  0  0  0
  5 18  1  1  0  0  0
  6  5  1  0  0  0  0
  7  5  1  0  0  0  0
  8  3  1  0  0  0  0
  9  4  1  0  0  0  0
 10 11  1  0  0  0  0
 10  7  1  0  0  0  0
 11  1  1  0  0  0  0
 12  8  2  0  0  0  0
 13  9  2  0  0  0  0
 13 12  1  0  0  0  0
 14 12  1  0  0  0  0
 15 13  1  0  0  0  0
 16 14  1  0  0  0  0
 16 15  1  0  0  0  0
 17  7  2  0  0  0  0
M  END
$$$$
O[C@H]1[C@H](O)O[C@H]2[C@H]([C@@H]1O)OCOC2
 OpenBabel07182308452D

 18 19  0  0  0  0  0  0  0  0999 V2000
    1.0787    2.7603    0.0000 C   0  0  1  0  0  0  0  0  0  0  0  0
   -0.3468    1.9347    0.0000 C   0  0  1  0  0  0  0  0  0  0  0  0
    1.7888    3.1730    0.0000 O   0  0  0  0  0  0  0  0  0  0  0  0
   -0.3468    2.7603    0.0000 C   0  0  1  0  0  0  0  0  0  0  0  0
    0.3632    3.1730    0.0000 C   0  0  1  0  0  0  0  0  0  0  0  0
    0.3632    1.5218    0.0000 O   0  0  0  0  0  0  0  0  0  0  0  0
   -1.0595    1.5218    0.0000 O   0  0  0  0  0  0  0  0  0  0  0  0
    1.0815    1.9347    0.0000 C   0  0  2  0  0  0  0  0  0  0  0  0
    2.5016    2.7603    0.0000 C   0  0  0  0  0  0  0  0  0  0  0  0
    2.5016    1.9374    0.0000 O   0  0  0  0  0  0  0  0  0  0  0  0
    1.7915    1.5301    0.0000 C   0  0  0  0  0  0  0  0  0  0  0  0
   -1.0595    3.1730    0.0000 O   0  0  0  0  0  0  0  0  0  0  0  0
    0.3632    3.9987    0.0000 O   0  0  0  0  0  0  0  0  0  0  0  0
   -1.0650    2.3502    0.0000 H   0  0  0  0  0  0  0  0  0  0  0  0
    1.0732    3.5887    0.0000 H   0  0  0  0  0  0  0  0  0  0  0  0
    1.0787    1.1118    0.0000 H   0  0  0  0  0  0  0  0  0  0  0  0
   -1.0583    4.1430    0.0000 H   0  0  0  0  0  0  0  0  0  0  0  0
    1.2032    4.4837    0.0000 H   0  0  0  0  0  0  0  0  0  0  0  0
  1  8  1  1  0  0  0
  1 15  1  0  0  0  0
  2  7  1  0  0  0  0
  2 14  1  6  0  0  0
  3  1  1  0  0  0  0
  4  2  1  6  0  0  0
  4 12  1  0  0  0  0
  5  4  1  0  0  0  0
  5 13  1  0  0  0  0
  5  1  1  1  0  0  0
  6  2  1  0  0  0  0
  8  6  1  0  0  0  0
  8 16  1  6  0  0  0
  9 10  1  0  0  0  0
  9  3  1  0  0  0  0
 10 11  1  0  0  0  0
 11  8  1  0  0  0  0
 12 17  1  0  0  0  0
 13 18  1  0  0  0  0
M  END
$$$$
N[C@H]1CCO[C@H]([C@@H]1O)C
 OpenBabel07182308452D

 12 12  0  0  1  0  0  0  0  0999 V2000
    3.5056    0.4325    0.0000 O   0  0  0  0  0  0  0  0  0  0  0  0
    2.0959    2.0989    0.0000 O   0  0  0  0  0  0  0  0  0  0  0  0
    3.5343    2.9074    0.0000 N   0  0  0  0  0  0  0  0  0  0  0  0
    4.2248    0.8368    0.0000 C   0  0  0  0  0  0  0  0  0  0  0  0
    4.2344    1.6617    0.0000 C   0  0  0  0  0  0  0  0  0  0  0  0
    3.5247    2.0824    0.0000 C   0  0  1  0  0  0  0  0  0  0  0  0
    2.8056    1.6782    0.0000 C   0  0  2  0  0  0  0  0  0  0  0  0
    2.7960    0.8533    0.0000 C   0  0  2  0  0  0  0  0  0  0  0  0
    2.0768    0.4490    0.0000 C   0  0  0  0  0  0  0  0  0  0  0  0
    2.1071    3.0688    0.0000 H   0  0  0  0  0  0  0  0  0  0  0  0
    4.4235    3.4071    0.0000 H   0  0  0  0  0  0  0  0  0  0  0  0
    2.6569    3.4276    0.0000 H   0  0  0  0  0  0  0  0  0  0  0  0
  1  4  1  0  0  0  0
  1  8  1  0  0  0  0
  2 10  1  0  0  0  0
  3 11  1  0  0  0  0
  3 12  1  0  0  0  0
  4  5  1  0  0  0  0
  5  6  1  0  0  0  0
  6  3  1  1  0  0  0
  6  7  1  0  0  0  0
  7  2  1  6  0  0  0
  7  8  1  0  0  0  0
  8  9  1  1  0  0  0
M  END
$$$$
ClCCl
 OpenBabel07182308452D

  3  2  0  0  1  0  0  0  0  0999 V2000
   -4.2868   -0.8250    0.0000 C   0  0  0  0  0  0  0  0  0  0  0  0
   -4.2868   -1.6500    0.0000 Cl  0  0  0  0  0  0  0  0  0  0  0  0
   -5.0013   -0.4125    0.0000 Cl  0  0  0  0  0  0  0  0  0  0  0  0
  1  2  1  0  0  0  0
  1  3  1  0  0  0  0
M  END
$$$$
N[C@H]1[C@H]2CCC(=CN2C1=O)Cl
 OpenBabel07182308452D

 12 13  0  0  1  0  0  0  0  0999 V2000
    4.2917   -3.6917    0.0000 N   0  0  0  0  0  0  0  0  0  0  0  0
    3.4667   -3.6917    0.0000 C   0  0  0  0  0  0  0  0  0  0  0  0
    3.4667   -2.8667    0.0000 C   0  0  2  0  0  0  0  0  0  0  0  0
    5.0042   -4.1042    0.0000 C   0  0  0  0  0  0  0  0  0  0  0  0
    4.2917   -2.8667    0.0000 C   0  0  1  0  0  0  0  0  0  0  0  0
    2.8917   -2.2917    0.0000 N   0  0  0  0  0  0  0  0  0  0  0  0
    5.7250   -3.6917    0.0000 C   0  0  0  0  0  0  0  0  0  0  0  0
    5.0042   -2.4542    0.0000 C   0  0  0  0  0  0  0  0  0  0  0  0
    2.8917   -4.2750    0.0000 O   0  0  0  0  0  0  0  0  0  0  0  0
    5.7250   -2.8667    0.0000 C   0  0  0  0  0  0  0  0  0  0  0  0
    6.4417   -4.1042    0.0000 Cl  0  0  0  0  0  0  0  0  0  0  0  0
    1.9405   -2.5457    0.0000 H   0  0  0  0  0  0  0  0  0  0  0  0
  2  1  1  0  0  0  0
  3  5  1  0  0  0  0
  3  6  1  1  0  0  0
  3  2  1  0  0  0  0
  4  1  1  0  0  0  0
  5  1  1  0  0  0  0
  5  8  1  1  0  0  0
  6 12  1  0  0  0  0
  7  4  2  0  0  0  0
  9  2  2  0  0  0  0
 10  8  1  0  0  0  0
 10  7  1  0  0  0  0
 11  7  1  0  0  0  0
M  END
$$$$
CC(F)(F)F
 OpenBabel07182308452D

  5  4  0  0  1  0  0  0  0  0999 V2000
    8.5768   -2.0593    0.0000 F   0  0  0  0  0  0  0  0  0  0  0  0
   10.0057   -1.2343    0.0000 F   0  0  0  0  0  0  0  0  0  0  0  0
    9.7038   -2.3613    0.0000 F   0  0  0  0  0  0  0  0  0  0  0  0
    8.8788   -0.9323    0.0000 C   0  0  0  0  0  0  0  0  0  0  0  0
    9.2913   -1.6468    0.0000 C   0  0  0  0  0  0  0  0  0  0  0  0
  1  5  1  0  0  0  0
  2  5  1  0  0  0  0
  3  5  1  0  0  0  0
  4  5  1  0  0  0  0
M  END
$$$$
Cc1cnccc1O
 OpenBabel07182308452D

  8  8  0  0  1  0  0  0  0  0999 V2000
    8.0537   -0.9323    0.0000 O   0  0  0  0  0  0  0  0  0  0  0  0
    6.8162    1.2111    0.0000 N   0  0  0  0  0  0  0  0  0  0  0  0
    6.4037    0.4967    0.0000 C   0  0  0  0  0  0  0  0  0  0  0  0
    6.8162   -0.2178    0.0000 C   0  0  0  0  0  0  0  0  0  0  0  0
    7.6412   -0.2178    0.0000 C   0  0  0  0  0  0  0  0  0  0  0  0
    6.4037   -0.9323    0.0000 C   0  0  0  0  0  0  0  0  0  0  0  0
    8.0537    0.4967    0.0000 C   0  0  0  0  0  0  0  0  0  0  0  0
    7.6412    1.2111    0.0000 C   0  0  0  0  0  0  0  0  0  0  0  0
  1  5  1  0  0  0  0
  2  3  2  0  0  0  0
  2  8  1  0  0  0  0
  3  4  1  0  0  0  0
  4  5  2  0  0  0  0
  4  6  1  0  0  0  0
  5  7  1  0  0  0  0
  7  8  2  0  0  0  0
M  END
$$$$
O=c1[nH]c2c([nH]1)cccc2
 OpenBabel07182308452D

 11 12  0  0  1  0  0  0  0  0999 V2000
    5.1661   -3.4559    0.0000 O   0  0  0  0  0  0  0  0  0  0  0  0
    3.8596   -2.7920    0.0000 N   0  0  0  0  0  0  0  0  0  0  0  0
    3.8596   -4.1198    0.0000 N   0  0  0  0  0  0  0  0  0  0  0  0
    3.0790   -3.0434    0.0000 C   0  0  0  0  0  0  0  0  0  0  0  0
    4.3411   -3.4559    0.0000 C   0  0  0  0  0  0  0  0  0  0  0  0
    3.0790   -3.8684    0.0000 C   0  0  0  0  0  0  0  0  0  0  0  0
    2.3645   -2.6309    0.0000 C   0  0  0  0  0  0  0  0  0  0  0  0
    2.3645   -4.2809    0.0000 C   0  0  0  0  0  0  0  0  0  0  0  0
    1.6500   -3.0434    0.0000 C   0  0  0  0  0  0  0  0  0  0  0  0
    1.6500   -3.8684    0.0000 C   0  0  0  0  0  0  0  0  0  0  0  0
    4.1654   -5.0556    0.0000 H   0  0  0  0  0  0  0  0  0  0  0  0
  1  5  2  0  0  0  0
  2  4  1  0  0  0  0
  2  5  1  0  0  0  0
  3  5  1  0  0  0  0
  3  6  1  0  0  0  0
  3 11  1  0  0  0  0
  4  6  1  0  0  0  0
  4  7  2  0  0  0  0
  6  8  2  0  0  0  0
  7  9  1  0  0  0  0
  8 10  1  0  0  0  0
  9 10  2  0  0  0  0
M  END
$$$$
CN1CCC=CC1
 OpenBabel07182308452D

  7  7  0  0  1  0  0  0  0  0999 V2000
    4.6285   -0.4394    0.0000 N   0  0  0  0  0  0  0  0  0  0  0  0
    5.1795   -1.0535    0.0000 C   0  0  0  0  0  0  0  0  0  0  0  0
    4.9232   -1.8376    0.0000 C   0  0  0  0  0  0  0  0  0  0  0  0
    3.8213   -0.6095    0.0000 C   0  0  0  0  0  0  0  0  0  0  0  0
    4.1159   -2.0077    0.0000 C   0  0  0  0  0  0  0  0  0  0  0  0
    4.8848    0.3448    0.0000 C   0  0  0  0  0  0  0  0  0  0  0  0
    3.5649   -1.3937    0.0000 C   0  0  0  0  0  0  0  0  0  0  0  0
  1  2  1  0  0  0  0
  1  4  1  0  0  0  0
  1  6  1  0  0  0  0
  2  3  1  0  0  0  0
  3  5  1  0  0  0  0
  4  7  1  0  0  0  0
  5  7  2  0  0  0  0
M  END
$$$$
N[C@@H]1C[C@H](N)[C@H]([C@@H]([C@H]1O)O)O
 OpenBabel07182308452D

 16 16  0  0  0  0  0  0  0  0999 V2000
    0.8075    0.4555    0.0000 O   0  0  0  0  0  0  0  0  0  0  0  0
    1.0560   -1.1594    0.0000 O   0  0  0  0  0  0  0  0  0  0  0  0
    1.7600   -0.7453    0.0000 C   0  0  1  0  0  0  0  0  0  0  0  0
    2.4638   -1.1594    0.0000 C   0  0  1  0  0  0  0  0  0  0  0  0
    3.1679   -0.7453    0.0000 C   0  0  0  0  0  0  0  0  0  0  0  0
    3.1679    0.0414    0.0000 C   0  0  1  0  0  0  0  0  0  0  0  0
    2.4638    0.4555    0.0000 C   0  0  2  0  0  0  0  0  0  0  0  0
    1.7600    0.0414    0.0000 C   0  0  2  0  0  0  0  0  0  0  0  0
    2.4638   -1.9877    0.0000 N   0  0  0  0  0  0  0  0  0  0  0  0
    3.8718    0.4555    0.0000 N   0  0  0  0  0  0  0  0  0  0  0  0
    2.4638    1.2837    0.0000 O   0  0  0  0  0  0  0  0  0  0  0  0
    0.2121   -0.6812    0.0000 H   0  0  0  0  0  0  0  0  0  0  0  0
    1.5805   -2.4977    0.0000 H   0  0  0  0  0  0  0  0  0  0  0  0
    3.3471   -2.4977    0.0000 H   0  0  0  0  0  0  0  0  0  0  0  0
    4.7593   -0.0473    0.0000 H   0  0  0  0  0  0  0  0  0  0  0  0
    3.8635    1.4755    0.0000 H   0  0  0  0  0  0  0  0  0  0  0  0
  2 12  1  0  0  0  0
  3  2  1  6  0  0  0
  3  4  1  0  0  0  0
  4  5  1  0  0  0  0
  4  9  1  1  0  0  0
  5  6  1  0  0  0  0
  6  7  1  0  0  0  0
  6 10  1  1  0  0  0
  7  8  1  0  0  0  0
  7 11  1  6  0  0  0
  8  3  1  0  0  0  0
  8  1  1  1  0  0  0
  9 13  1  0  0  0  0
  9 14  1  0  0  0  0
 10 15  1  0  0  0  0
 10 16  1  0  0  0  0
M  END
$$$$
O[C@@H]1[C@@H](N)COC[C@H]1O
 OpenBabel07182308452D

 13 13  0  0  0  0  0  0  0  0999 V2000
    3.1679    1.6978    0.0000 C   0  0  0  0  0  0  0  0  0  0  0  0
    3.8718    1.2837    0.0000 O   0  0  0  0  0  0  0  0  0  0  0  0
    4.5344    1.6978    0.0000 C   0  0  0  0  0  0  0  0  0  0  0  0
    4.5344    2.5261    0.0000 C   0  0  2  0  0  0  0  0  0  0  0  0
    3.8718    2.9401    0.0000 C   0  0  1  0  0  0  0  0  0  0  0  0
    3.1679    2.5261    0.0000 C   0  0  1  0  0  0  0  0  0  0  0  0
    2.4225    2.9401    0.0000 N   0  0  0  0  0  0  0  0  0  0  0  0
    3.8718    3.7269    0.0000 O   0  0  0  0  0  0  0  0  0  0  0  0
    5.2798    2.9815    0.0000 O   0  0  0  0  0  0  0  0  0  0  0  0
    2.4056    3.9600    0.0000 H   0  0  0  0  0  0  0  0  0  0  0  0
    1.5477    2.4155    0.0000 H   0  0  0  0  0  0  0  0  0  0  0  0
    4.7118    4.2119    0.0000 H   0  0  0  0  0  0  0  0  0  0  0  0
    6.1316    2.5175    0.0000 H   0  0  0  0  0  0  0  0  0  0  0  0
  1  2  1  0  0  0  0
  2  3  1  0  0  0  0
  3  4  1  0  0  0  0
  4  5  1  0  0  0  0
  4  9  1  6  0  0  0
  5  6  1  0  0  0  0
  5  8  1  1  0  0  0
  6  1  1  0  0  0  0
  6  7  1  6  0  0  0
  7 10  1  0  0  0  0
  7 11  1  0  0  0  0
  8 12  1  0  0  0  0
  9 13  1  0  0  0  0
M  END
$$$$
Clc1ccc2c(c1)CCc1c(C2=C2CCNCC2)nccc1
 OpenBabel07182308452D

 22 25  0  0  0  0  0  0  0  0999 V2000
    1.6500    2.6662    0.0000 Cl  0  0  0  0  0  0  0  0  0  0  0  0
    4.8159   -0.9036    0.0000 N   0  0  0  0  0  0  0  0  0  0  0  0
    6.1801    1.3352    0.0000 N   0  0  0  0  0  0  0  0  0  0  0  0
    4.8159    0.7464    0.0000 C   0  0  0  0  0  0  0  0  0  0  0  0
    5.5304    0.3339    0.0000 C   0  0  0  0  0  0  0  0  0  0  0  0
    4.1014    0.3339    0.0000 C   0  0  0  0  0  0  0  0  0  0  0  0
    4.8159    1.5714    0.0000 C   0  0  0  0  0  0  0  0  0  0  0  0
    5.5304   -0.4911    0.0000 C   0  0  0  0  0  0  0  0  0  0  0  0
    4.1014   -0.4911    0.0000 C   0  0  0  0  0  0  0  0  0  0  0  0
    4.0727    1.9294    0.0000 C   0  0  0  0  0  0  0  0  0  0  0  0
    5.5592    1.9294    0.0000 C   0  0  0  0  0  0  0  0  0  0  0  0
    3.8890    2.7337    0.0000 C   0  0  0  0  0  0  0  0  0  0  0  0
    4.4034    3.3787    0.0000 C   0  0  0  0  0  0  0  0  0  0  0  0
    5.2284    3.3787    0.0000 C   0  0  0  0  0  0  0  0  0  0  0  0
    5.7428    2.7337    0.0000 C   0  0  0  0  0  0  0  0  0  0  0  0
    3.4518    1.3352    0.0000 C   0  0  0  0  0  0  0  0  0  0  0  0
    3.0718    2.9996    0.0000 C   0  0  0  0  0  0  0  0  0  0  0  0
    6.5600    2.9996    0.0000 C   0  0  0  0  0  0  0  0  0  0  0  0
    2.6286    1.5822    0.0000 C   0  0  0  0  0  0  0  0  0  0  0  0
    2.4374    2.4200    0.0000 C   0  0  0  0  0  0  0  0  0  0  0  0
    7.1944    2.4199    0.0000 C   0  0  0  0  0  0  0  0  0  0  0  0
    7.0032    1.5821    0.0000 C   0  0  0  0  0  0  0  0  0  0  0  0
  1 20  1  0  0  0  0
  2  8  1  0  0  0  0
  2  9  1  0  0  0  0
  3 11  1  0  0  0  0
  3 22  2  0  0  0  0
  4  5  1  0  0  0  0
  4  6  1  0  0  0  0
  4  7  2  0  0  0  0
  5  8  1  0  0  0  0
  6  9  1  0  0  0  0
  7 10  1  0  0  0  0
  7 11  1  0  0  0  0
 10 12  2  0  0  0  0
 10 16  1  0  0  0  0
 11 15  2  0  0  0  0
 12 13  1  0  0  0  0
 12 17  1  0  0  0  0
 13 14  1  0  0  0  0
 14 15  1  0  0  0  0
 15 18  1  0  0  0  0
 16 19  2  0  0  0  0
 17 20  2  0  0  0  0
 18 21  2  0  0  0  0
 19 20  1  0  0  0  0
 21 22  1  0  0  0  0
M  END
$$$$
Cc1cccs1
 OpenBabel07182308452D

  6  6  0  0  0  0  0  0  0  0999 V2000
   -4.0260    0.4395    0.0000 S   0  0  0  0  0  0  0  0  0  0  0  0
   -4.6935    0.9244    0.0000 C   0  0  0  0  0  0  0  0  0  0  0  0
   -4.4386    1.7090    0.0000 C   0  0  0  0  0  0  0  0  0  0  0  0
   -3.6136    1.7090    0.0000 C   0  0  0  0  0  0  0  0  0  0  0  0
   -3.3586    0.9244    0.0000 C   0  0  0  0  0  0  0  0  0  0  0  0
   -2.6442    0.5119    0.0000 C   0  0  0  0  0  0  0  0  0  0  0  0
  1  2  1  0  0  0  0
  1  5  1  0  0  0  0
  2  3  2  0  0  0  0
  3  4  1  0  0  0  0
  4  5  2  0  0  0  0
  5  6  1  0  0  0  0
M  END
$$$$
CC1=CN2[C@H](SC1)CC2=O
 OpenBabel07182308452D

 12 13  0  0  0  0  0  0  0  0999 V2000
   -0.4183   -0.0994    0.0000 C   0  0  0  0  0  0  0  0  0  0  0  0
   -0.4183    0.7255    0.0000 C   0  0  0  0  0  0  0  0  0  0  0  0
    0.4066   -0.0994    0.0000 N   0  0  0  0  0  0  0  0  0  0  0  0
    0.4066    0.7255    0.0000 C   0  0  2  0  0  0  0  0  0  0  0  0
    1.1210   -0.5119    0.0000 C   0  0  0  0  0  0  0  0  0  0  0  0
    1.1210    1.1380    0.0000 S   0  0  0  0  0  0  0  0  0  0  0  0
    1.8355    0.7255    0.0000 C   0  0  0  0  0  0  0  0  0  0  0  0
    1.8355   -0.0994    0.0000 C   0  0  0  0  0  0  0  0  0  0  0  0
    2.5500   -0.5119    0.0000 C   0  0  0  0  0  0  0  0  0  0  0  0
   -1.0017   -0.6828    0.0000 O   0  0  0  0  0  0  0  0  0  0  0  0
    0.4066    1.5505    0.0000 H   0  0  0  0  0  0  0  0  0  0  0  0
   -0.4183    1.5505    0.0000 H   0  0  0  0  0  0  0  0  0  0  0  0
  1  2  1  0  0  0  0
  1  3  1  0  0  0  0
  1 10  2  0  0  0  0
  2 12  1  0  0  0  0
  3  4  1  0  0  0  0
  4  2  1  0  0  0  0
  4  6  1  0  0  0  0
  4 11  1  6  0  0  0
  5  3  1  0  0  0  0
  5  8  2  0  0  0  0
  6  7  1  0  0  0  0
  7  8  1  0  0  0  0
  8  9  1  0  0  0  0
M  END
$$$$
CN1c2ccccc2CCc2c1cccc2
 OpenBabel07182308452D

 16 18  0  0  0  0  0  0  0  0999 V2000
    3.8680    0.7167    0.0000 N   0  0  0  0  0  0  0  0  0  0  0  0
    3.8680   -0.0755    0.0000 C   0  0  0  0  0  0  0  0  0  0  0  0
    4.5817    1.0603    0.0000 C   0  0  0  0  0  0  0  0  0  0  0  0
    3.1542    1.0603    0.0000 C   0  0  0  0  0  0  0  0  0  0  0  0
    4.2641    2.4519    0.0000 C   0  0  0  0  0  0  0  0  0  0  0  0
    3.4719    2.4519    0.0000 C   0  0  0  0  0  0  0  0  0  0  0  0
    4.7580    1.8326    0.0000 C   0  0  0  0  0  0  0  0  0  0  0  0
    2.9780    1.8326    0.0000 C   0  0  0  0  0  0  0  0  0  0  0  0
    5.1777    0.4899    0.0000 C   0  0  0  0  0  0  0  0  0  0  0  0
    2.5581    0.4899    0.0000 C   0  0  0  0  0  0  0  0  0  0  0  0
    5.5425    2.0879    0.0000 C   0  0  0  0  0  0  0  0  0  0  0  0
    2.1934    2.0879    0.0000 C   0  0  0  0  0  0  0  0  0  0  0  0
    5.9680    0.7269    0.0000 C   0  0  0  0  0  0  0  0  0  0  0  0
    1.7678    0.7269    0.0000 C   0  0  0  0  0  0  0  0  0  0  0  0
    6.1516    1.5314    0.0000 C   0  0  0  0  0  0  0  0  0  0  0  0
    1.5843    1.5315    0.0000 C   0  0  0  0  0  0  0  0  0  0  0  0
  1  2  1  0  0  0  0
  1  3  1  0  0  0  0
  1  4  1  0  0  0  0
  3  7  1  0  0  0  0
  3  9  2  0  0  0  0
  4  8  1  0  0  0  0
  4 10  2  0  0  0  0
  5  6  1  0  0  0  0
  5  7  1  0  0  0  0
  6  8  1  0  0  0  0
  7 11  2  0  0  0  0
  8 12  2  0  0  0  0
  9 13  1  0  0  0  0
 10 14  1  0  0  0  0
 11 15  1  0  0  0  0
 12 16  1  0  0  0  0
 13 15  2  0  0  0  0
 14 16  2  0  0  0  0
M  END
$$$$
Cc1ccc(c(c1)C)C
 OpenBabel07182308452D

  9  9  0  0  0  0  0  0  0  0999 V2000
   -2.3125    1.8250    0.0000 C   0  0  0  0  0  0  0  0  0  0  0  0
   -3.0270    1.4125    0.0000 C   0  0  0  0  0  0  0  0  0  0  0  0
   -3.0270    0.5875    0.0000 C   0  0  0  0  0  0  0  0  0  0  0  0
   -2.3125    0.1750    0.0000 C   0  0  0  0  0  0  0  0  0  0  0  0
   -1.5980    0.5875    0.0000 C   0  0  0  0  0  0  0  0  0  0  0  0
   -1.5980    1.4125    0.0000 C   0  0  0  0  0  0  0  0  0  0  0  0
   -2.3125    2.6500    0.0000 C   0  0  0  0  0  0  0  0  0  0  0  0
   -3.7414    1.8250    0.0000 C   0  0  0  0  0  0  0  0  0  0  0  0
   -0.8836    0.1750    0.0000 C   0  0  0  0  0  0  0  0  0  0  0  0
  1  2  1  0  0  0  0
  1  6  2  0  0  0  0
  1  7  1  0  0  0  0
  2  3  2  0  0  0  0
  2  8  1  0  0  0  0
  3  4  1  0  0  0  0
  4  5  2  0  0  0  0
  5  6  1  0  0  0  0
  5  9  1  0  0  0  0
M  END
$$$$
CC1=C(C)/C/2=C/c3[nH]c(c(c3C)C)/C=C/3\N=C(/C=c/4\[nH]/c(=C\C1=N2)/cc4C)C1=CC=CC[C@@]31C
 OpenBabel07182308452D

 36 41  0  0  1  0  0  0  0  0999 V2000
    7.7006    0.8884    0.0000 N   0  0  0  0  0  0  0  0  0  0  0  0
    6.4881   -0.2413    0.0000 N   0  0  0  0  0  0  0  0  0  0  0  0
    8.9670   -0.2413    0.0000 N   0  0  0  0  0  0  0  0  0  0  0  0
    7.7283   -1.3710    0.0000 N   0  0  0  0  0  0  0  0  0  0  0  0
    7.2876    2.2100    0.0000 C   0  0  2  0  0  0  0  0  0  0  0  0
    6.8461    2.9483    0.0000 C   0  0  0  0  0  0  0  0  0  0  0  0
    8.1135    2.2100    0.0000 C   0  0  0  0  0  0  0  0  0  0  0  0
    7.0392    1.4118    0.0000 C   0  0  0  0  0  0  0  0  0  0  0  0
    6.4627    2.2100    0.0000 C   0  0  0  0  0  0  0  0  0  0  0  0
    7.2705    3.6966    0.0000 C   0  0  0  0  0  0  0  0  0  0  0  0
    8.3898    1.4394    0.0000 C   0  0  0  0  0  0  0  0  0  0  0  0
    8.5552    2.9483    0.0000 C   0  0  0  0  0  0  0  0  0  0  0  0
    8.1307    3.6966    0.0000 C   0  0  0  0  0  0  0  0  0  0  0  0
    6.2409    1.1908    0.0000 C   0  0  0  0  0  0  0  0  0  0  0  0
    9.1880    1.1908    0.0000 C   0  0  0  0  0  0  0  0  0  0  0  0
    6.0199    0.3925    0.0000 C   0  0  0  0  0  0  0  0  0  0  0  0
    5.2216    0.1717    0.0000 C   0  0  0  0  0  0  0  0  0  0  0  0
    9.4352    0.4202    0.0000 C   0  0  0  0  0  0  0  0  0  0  0  0
    5.2216   -0.6542    0.0000 C   0  0  0  0  0  0  0  0  0  0  0  0
    6.0199   -0.8752    0.0000 C   0  0  0  0  0  0  0  0  0  0  0  0
   10.2348    0.1993    0.0000 C   0  0  0  0  0  0  0  0  0  0  0  0
    4.5073   -1.0667    0.0000 C   0  0  0  0  0  0  0  0  0  0  0  0
    4.5652    0.6711    0.0000 C   0  0  0  0  0  0  0  0  0  0  0  0
    9.4628   -0.8476    0.0000 C   0  0  0  0  0  0  0  0  0  0  0  0
   10.2348   -0.6266    0.0000 C   0  0  0  0  0  0  0  0  0  0  0  0
    6.2686   -1.6458    0.0000 C   0  0  0  0  0  0  0  0  0  0  0  0
    7.0667   -1.8943    0.0000 C   0  0  0  0  0  0  0  0  0  0  0  0
    7.3153   -2.6649    0.0000 C   0  0  0  0  0  0  0  0  0  0  0  0
    9.2156   -1.6458    0.0000 C   0  0  0  0  0  0  0  0  0  0  0  0
    8.3898   -1.8668    0.0000 C   0  0  0  0  0  0  0  0  0  0  0  0
   10.8912    0.6988    0.0000 C   0  0  0  0  0  0  0  0  0  0  0  0
    8.1412   -2.6649    0.0000 C   0  0  0  0  0  0  0  0  0  0  0  0
    6.7621   -3.2768    0.0000 C   0  0  0  0  0  0  0  0  0  0  0  0
    8.6302   -3.3294    0.0000 C   0  0  0  0  0  0  0  0  0  0  0  0
    7.4726   -0.2413    0.0000 H   0  0  0  0  0  0  0  0  0  0  0  0
    7.9831   -0.2755    0.0000 H   0  0  0  0  0  0  0  0  0  0  0  0
  1  8  1  0  0  0  0
  1 11  2  0  0  0  0
  2 16  1  0  0  0  0
  2 20  1  0  0  0  0
  2 35  1  0  0  0  0
  3 18  1  0  0  0  0
  3 24  1  0  0  0  0
  3 36  1  0  0  0  0
  4 27  1  0  0  0  0
  4 30  2  0  0  0  0
  5  6  1  0  0  0  0
  5  7  1  0  0  0  0
  5  8  1  0  0  0  0
  5  9  1  1  0  0  0
  6 10  1  0  0  0  0
  7 11  1  0  0  0  0
  7 12  2  0  0  0  0
  8 14  2  0  0  0  0
 10 13  2  0  0  0  0
 11 15  1  0  0  0  0
 12 13  1  0  0  0  0
 14 16  1  0  0  0  0
 15 18  2  0  0  0  0
 16 17  2  0  0  0  0
 17 19  1  0  0  0  0
 17 23  1  0  0  0  0
 18 21  1  0  0  0  0
 19 20  2  0  0  0  0
 19 22  1  0  0  0  0
 20 26  1  0  0  0  0
 21 25  2  0  0  0  0
 21 31  1  0  0  0  0
 24 25  1  0  0  0  0
 24 29  2  0  0  0  0
 26 27  2  0  0  0  0
 27 28  1  0  0  0  0
 28 32  2  0  0  0  0
 28 33  1  0  0  0  0
 29 30  1  0  0  0  0
 30 32  1  0  0  0  0
 32 34  1  0  0  0  0
M  END
$$$$
CC(=O)C
 OpenBabel07182308452D

  4  3  0  0  0  0  0  0  0  0999 V2000
    2.3641   -1.2516    0.0000 O   0  0  0  0  0  0  0  0  0  0  0  0
    3.0786   -0.0143    0.0000 C   0  0  0  0  0  0  0  0  0  0  0  0
    2.3641   -0.4267    0.0000 C   0  0  0  0  0  0  0  0  0  0  0  0
    1.6498   -0.0143    0.0000 C   0  0  0  0  0  0  0  0  0  0  0  0
  1  3  2  0  0  0  0
  2  3  1  0  0  0  0
  3  4  1  0  0  0  0
M  END
$$$$
O[C@@H]1C[C@@H]2[C@@H]3[C@H]([C@H](C1)[N+]2(C)C)O3
 OpenBabel07182308452D

 14 16  0  0  0  0  0  0  0  0999 V2000
   -2.8718    0.2071    0.0000 C   0  0  2  0  0  0  0  0  0  0  0  0
   -2.8689    0.9905    0.0000 C   0  0  1  0  0  0  0  0  0  0  0  0
   -1.7727    0.5841    0.0000 N   0  3  0  0  0  0  0  0  0  0  0  0
   -3.5499    0.6017    0.0000 O   0  0  0  0  0  0  0  0  0  0  0  0
   -2.2433   -0.2868    0.0000 C   0  0  2  0  0  0  0  0  0  0  0  0
   -2.2493    1.4873    0.0000 C   0  0  1  0  0  0  0  0  0  0  0  0
   -1.4775    1.3208    0.0000 C   0  0  0  0  0  0  0  0  0  0  0  0
   -1.4716   -0.1056    0.0000 C   0  0  0  0  0  0  0  0  0  0  0  0
   -0.3113    0.6134    0.0000 O   0  0  0  0  0  0  0  0  0  0  0  0
   -1.1384    0.6076    0.0000 C   0  0  1  0  0  0  0  0  0  0  0  0
   -0.9806   -0.2079    0.0000 C   0  0  0  0  0  0  0  0  0  0  0  0
   -0.9864    1.3793    0.0000 C   0  0  0  0  0  0  0  0  0  0  0  0
   -3.4593   -0.3774    0.0000 H   0  0  0  0  0  0  0  0  0  0  0  0
   -3.4593    1.5780    0.0000 H   0  0  0  0  0  0  0  0  0  0  0  0
  1 13  1  0  0  0  0
  1  2  1  6  0  0  0
  1  4  1  0  0  0  0
  2  4  1  0  0  0  0
  2 14  1  6  0  0  0
  5  8  1  0  0  0  0
  5  3  1  0  0  0  0
  5  1  1  6  0  0  0
  6  7  1  0  0  0  0
  6  3  1  0  0  0  0
  6  2  1  6  0  0  0
 10  9  1  6  0  0  0
 10  8  1  0  0  0  0
 10  7  1  0  0  0  0
 11  3  1  0  0  0  0
 12  3  1  0  0  0  0
M  CHG  1   3   1
M  END
$$$$
[Br-]
 OpenBabel07182308452D

  1  0  0  0  0  0  0  0  0  0999 V2000
    3.5499    0.6251    0.0000 Br  0  5  0  0  0  0  0  0  0  0  0  0
M  CHG  1   1  -1
M  END
$$$$
[Na+]
 OpenBabel07182308452D

  1  0  0  0  0  0  0  0  0  0999 V2000
    3.7307   -1.2757    0.0000 Na  0  3  0  0  0 15  0  0  0  0  0  0
M  CHG  1   1   1
M  END
$$$$
C1Cn2c(C1)ccc2
 OpenBabel07182308452D

  8  9  0  0  1  0  0  0  0  0999 V2000
    5.1107    0.1748    0.0000 N   0  0  0  0  0  0  0  0  0  0  0  0
    5.8914   -0.9016    0.0000 C   0  0  0  0  0  0  0  0  0  0  0  0
    6.3729   -0.2377    0.0000 C   0  0  0  0  0  0  0  0  0  0  0  0
    5.8914    0.4263    0.0000 C   0  0  0  0  0  0  0  0  0  0  0  0
    5.1107   -0.6502    0.0000 C   0  0  0  0  0  0  0  0  0  0  0  0
    4.3261    0.4298    0.0000 C   0  0  0  0  0  0  0  0  0  0  0  0
    4.3261   -0.9052    0.0000 C   0  0  0  0  0  0  0  0  0  0  0  0
    3.8411   -0.2377    0.0000 C   0  0  0  0  0  0  0  0  0  0  0  0
  1  4  1  0  0  0  0
  1  5  1  0  0  0  0
  1  6  1  0  0  0  0
  2  3  1  0  0  0  0
  2  5  1  0  0  0  0
  3  4  1  0  0  0  0
  5  7  2  0  0  0  0
  6  8  2  0  0  0  0
  7  8  1  0  0  0  0
M  END
$$$$
Fc1cnc2c(c1)c(=O)cc[nH]2
 OpenBabel07182308452D

 12 13  0  0  0  0  0  0  0  0999 V2000
    7.1488    1.0625    0.0000 F   0  0  0  0  0  0  0  0  0  0  0  0
    4.2364    1.8676    0.0000 O   0  0  0  0  0  0  0  0  0  0  0  0
    4.2364   -0.6075    0.0000 N   0  0  0  0  0  0  0  0  0  0  0  0
    5.6884   -0.6360    0.0000 N   0  0  0  0  0  0  0  0  0  0  0  0
    6.4359   -0.2121    0.0000 C   0  0  0  0  0  0  0  0  0  0  0  0
    4.9509   -0.1949    0.0000 C   0  0  0  0  0  0  0  0  0  0  0  0
    4.9509    0.6301    0.0000 C   0  0  0  0  0  0  0  0  0  0  0  0
    6.4359    0.6473    0.0000 C   0  0  0  0  0  0  0  0  0  0  0  0
    5.6884    1.0712    0.0000 C   0  0  0  0  0  0  0  0  0  0  0  0
    4.2364    1.0426    0.0000 C   0  0  0  0  0  0  0  0  0  0  0  0
    3.5220   -0.1949    0.0000 C   0  0  0  0  0  0  0  0  0  0  0  0
    3.5220    0.6301    0.0000 C   0  0  0  0  0  0  0  0  0  0  0  0
  1  8  1  0  0  0  0
  2 10  2  0  0  0  0
  3  6  1  0  0  0  0
  3 11  1  0  0  0  0
  4  5  1  0  0  0  0
  4  6  2  0  0  0  0
  5  8  2  0  0  0  0
  6  7  1  0  0  0  0
  7  9  2  0  0  0  0
  7 10  1  0  0  0  0
  8  9  1  0  0  0  0
 10 12  1  0  0  0  0
 11 12  2  0  0  0  0
M  END
$$$$
C1CN2CC[C@H]1CC2
 OpenBabel07182308452D

  9 10  0  0  0  0  0  0  0  0999 V2000
    1.4289    2.8875    0.0000 C   0  0  0  0  0  0  0  0  0  0  0  0
    2.8578    2.0626    0.0000 C   0  0  0  0  0  0  0  0  0  0  0  0
    2.8578    2.8876    0.0000 C   0  0  0  0  0  0  0  0  0  0  0  0
    2.5559    2.5857    0.0000 C   0  0  0  0  0  0  0  0  0  0  0  0
    2.1434    3.3001    0.0000 C   0  0  1  0  0  0  0  0  0  0  0  0
    2.1434    1.6501    0.0000 N   0  0  2  0  0  0  0  0  0  0  0  0
    2.5560    0.9357    0.0000 C   0  0  0  0  0  0  0  0  0  0  0  0
    1.4289    2.0625    0.0000 C   0  0  0  0  0  0  0  0  0  0  0  0
    1.4289    1.2375    0.0000 H   0  0  0  0  0  0  0  0  0  0  0  0
  1  8  1  0  0  0  0
  2  3  1  0  0  0  0
  4  7  1  0  0  0  0
  5  1  1  1  0  0  0
  5  3  1  0  0  0  0
  5  4  1  0  0  0  0
  6  7  1  6  0  0  0
  6  2  1  0  0  0  0
  8  6  1  0  0  0  0
  8  9  1  0  0  0  0
M  END
$$$$
CN1C=C(O)c2c(S1(=O)=O)ccs2
 OpenBabel07182308452D

 14 15  0  0  0  0  0  0  0  0999 V2000
   -1.1485    0.5659    0.0000 C   0  0  0  0  0  0  0  0  0  0  0  0
   -0.4365    0.1534    0.0000 C   0  0  0  0  0  0  0  0  0  0  0  0
   -0.4365   -0.6715    0.0000 N   0  0  0  0  0  0  0  0  0  0  0  0
   -1.1485   -1.0840    0.0000 S   0  0  0  0  0  0  0  0  0  0  0  0
   -1.8646    0.1534    0.0000 C   0  0  0  0  0  0  0  0  0  0  0  0
   -1.8622   -0.6733    0.0000 C   0  0  0  0  0  0  0  0  0  0  0  0
   -2.6476   -0.9310    0.0000 C   0  0  0  0  0  0  0  0  0  0  0  0
   -3.1355   -0.2636    0.0000 C   0  0  0  0  0  0  0  0  0  0  0  0
   -2.6515    0.4065    0.0000 S   0  0  0  0  0  0  0  0  0  0  0  0
    0.2781   -1.0834    0.0000 C   0  0  0  0  0  0  0  0  0  0  0  0
   -1.1475    1.3909    0.0000 O   0  0  0  0  0  0  0  0  0  0  0  0
   -1.5608   -1.7985    0.0000 O   0  0  0  0  0  0  0  0  0  0  0  0
   -0.7360   -1.7985    0.0000 O   0  0  0  0  0  0  0  0  0  0  0  0
   -0.3355    1.8584    0.0000 H   0  0  0  0  0  0  0  0  0  0  0  0
  1  2  2  0  0  0  0
  1 11  1  0  0  0  0
  2  3  1  0  0  0  0
  3  4  1  0  0  0  0
  3 10  1  0  0  0  0
  4  6  1  0  0  0  0
  4 12  2  0  0  0  0
  5  1  1  0  0  0  0
  5  6  2  0  0  0  0
  6  7  1  0  0  0  0
  7  8  2  0  0  0  0
  8  9  1  0  0  0  0
  9  5  1  0  0  0  0
 11 14  1  0  0  0  0
 13  4  2  0  0  0  0
M  END
$$$$
CC1=C[C@@H]2[C@@H](CC1)C(C)(C)Oc1c2c(O)cc(c1)C
 OpenBabel07182308452D

 22 24  0  0  1  0  0  0  0  0999 V2000
    7.6955   -5.8135    0.0000 C   0  0  1  0  0  0  0  0  0  0  0  0
    8.4043   -6.2242    0.0000 C   0  0  0  0  0  0  0  0  0  0  0  0
    6.9797   -6.2242    0.0000 C   0  0  2  0  0  0  0  0  0  0  0  0
    7.6989   -4.9925    0.0000 C   0  0  0  0  0  0  0  0  0  0  0  0
    8.4043   -7.0523    0.0000 C   0  0  0  0  0  0  0  0  0  0  0  0
    9.1200   -5.8135    0.0000 C   0  0  0  0  0  0  0  0  0  0  0  0
    6.9797   -7.0523    0.0000 C   0  0  0  0  0  0  0  0  0  0  0  0
    6.2674   -5.8101    0.0000 C   0  0  0  0  0  0  0  0  0  0  0  0
    6.9833   -4.5786    0.0000 C   0  0  0  0  0  0  0  0  0  0  0  0
    7.6955   -7.4627    0.0000 O   0  0  0  0  0  0  0  0  0  0  0  0
    9.1200   -7.4627    0.0000 C   0  0  0  0  0  0  0  0  0  0  0  0
    9.8289   -6.2242    0.0000 C   0  0  0  0  0  0  0  0  0  0  0  0
    9.1200   -4.9891    0.0000 O   0  0  0  0  0  0  0  0  0  0  0  0
    6.2674   -4.9891    0.0000 C   0  0  0  0  0  0  0  0  0  0  0  0
    6.9867   -3.7575    0.0000 C   0  0  0  0  0  0  0  0  0  0  0  0
    9.8289   -7.0523    0.0000 C   0  0  0  0  0  0  0  0  0  0  0  0
   10.5411   -7.4627    0.0000 C   0  0  0  0  0  0  0  0  0  0  0  0
    8.3657   -5.3925    0.0000 H   0  0  0  0  0  0  0  0  0  0  0  0
    6.1587   -6.7681    0.0000 H   0  0  0  0  0  0  0  0  0  0  0  0
    6.9797   -7.8773    0.0000 C   0  0  0  0  0  0  0  0  0  0  0  0
    6.2652   -7.4648    0.0000 C   0  0  0  0  0  0  0  0  0  0  0  0
    9.9315   -4.5206    0.0000 H   0  0  0  0  0  0  0  0  0  0  0  0
  1  2  1  0  0  0  0
  1  3  1  6  0  0  0
  1  4  1  0  0  0  0
  1 18  1  0  0  0  0
  2  5  2  0  0  0  0
  2  6  1  0  0  0  0
  3  7  1  0  0  0  0
  3  8  1  0  0  0  0
  3 19  1  1  0  0  0
  4  9  2  0  0  0  0
  5 10  1  0  0  0  0
  5 11  1  0  0  0  0
  6 12  2  0  0  0  0
  6 13  1  0  0  0  0
  7 10  1  0  0  0  0
  7 20  1  0  0  0  0
  7 21  1  0  0  0  0
  8 14  1  0  0  0  0
  9 15  1  0  0  0  0
  9 14  1  0  0  0  0
 11 16  2  0  0  0  0
 12 16  1  0  0  0  0
 13 22  1  0  0  0  0
 16 17  1  0  0  0  0
M  END
$$$$
Clc1ccc2c(c1)nccc2
 OpenBabel07182308452D

 11 12  0  0  1  0  0  0  0  0999 V2000
   14.2938   -1.4637    0.0000 Cl  0  0  0  0  0  0  0  0  0  0  0  0
   11.3814   -1.4438    0.0000 N   0  0  0  0  0  0  0  0  0  0  0  0
   10.6668   -1.0313    0.0000 C   0  0  0  0  0  0  0  0  0  0  0  0
   10.6668   -0.2063    0.0000 C   0  0  0  0  0  0  0  0  0  0  0  0
   12.0958   -1.0313    0.0000 C   0  0  0  0  0  0  0  0  0  0  0  0
   11.3814    0.2063    0.0000 C   0  0  0  0  0  0  0  0  0  0  0  0
   12.0958   -0.2063    0.0000 C   0  0  0  0  0  0  0  0  0  0  0  0
   12.8333   -1.4724    0.0000 C   0  0  0  0  0  0  0  0  0  0  0  0
   12.8333    0.2349    0.0000 C   0  0  0  0  0  0  0  0  0  0  0  0
   13.5809   -1.0484    0.0000 C   0  0  0  0  0  0  0  0  0  0  0  0
   13.5809   -0.1891    0.0000 C   0  0  0  0  0  0  0  0  0  0  0  0
  1 10  1  0  0  0  0
  2  3  2  0  0  0  0
  2  5  1  0  0  0  0
  3  4  1  0  0  0  0
  4  6  2  0  0  0  0
  5  7  2  0  0  0  0
  5  8  1  0  0  0  0
  6  7  1  0  0  0  0
  7  9  1  0  0  0  0
  8 10  2  0  0  0  0
  9 11  2  0  0  0  0
 10 11  1  0  0  0  0
M  END
$$$$
CC1C(=O)NC(=O)N(C1=O)C
 OpenBabel07182308452D

 12 12  0  0  1  0  0  0  0  0999 V2000
    4.7291   -0.5487    0.0000 O   0  0  0  0  0  0  0  0  0  0  0  0
    1.8711   -0.5487    0.0000 O   0  0  0  0  0  0  0  0  0  0  0  0
    3.3001   -3.0238    0.0000 O   0  0  0  0  0  0  0  0  0  0  0  0
    4.0145   -1.7862    0.0000 N   0  0  0  0  0  0  0  0  0  0  0  0
    2.5856   -1.7862    0.0000 N   0  0  0  0  0  0  0  0  0  0  0  0
    3.3001   -0.5487    0.0000 C   0  0  3  0  0  0  0  0  0  0  0  0
    2.8876    0.1658    0.0000 C   0  0  0  0  0  0  0  0  0  0  0  0
    4.0145   -0.9612    0.0000 C   0  0  0  0  0  0  0  0  0  0  0  0
    2.5856   -0.9612    0.0000 C   0  0  0  0  0  0  0  0  0  0  0  0
    3.3001   -2.1988    0.0000 C   0  0  0  0  0  0  0  0  0  0  0  0
    4.7291   -2.1988    0.0000 C   0  0  0  0  0  0  0  0  0  0  0  0
    1.7330   -2.2784    0.0000 H   0  0  0  0  0  0  0  0  0  0  0  0
  1  8  2  0  0  0  0
  2  9  2  0  0  0  0
  3 10  2  0  0  0  0
  4  8  1  0  0  0  0
  4 10  1  0  0  0  0
  4 11  1  0  0  0  0
  5  9  1  0  0  0  0
  5 10  1  0  0  0  0
  5 12  1  0  0  0  0
  6  7  1  0  0  0  0
  6  8  1  0  0  0  0
  6  9  1  0  0  0  0
M  END
$$$$
CCC#CCC
 OpenBabel07182308452D

  6  5  0  0  1  0  0  0  0  0999 V2000
    3.7126    0.1658    0.0000 C   0  0  0  0  0  0  0  0  0  0  0  0
    4.5376    0.1658    0.0000 C   0  0  0  0  0  0  0  0  0  0  0  0
    3.3001    0.8803    0.0000 C   0  0  0  0  0  0  0  0  0  0  0  0
    2.8876    1.5948    0.0000 C   0  0  0  0  0  0  0  0  0  0  0  0
    2.4751    2.3092    0.0000 C   0  0  0  0  0  0  0  0  0  0  0  0
    2.8876    3.0238    0.0000 C   0  0  0  0  0  0  0  0  0  0  0  0
  1  2  1  0  0  0  0
  1  3  1  0  0  0  0
  3  4  3  0  0  0  0
  4  5  1  0  0  0  0
  5  6  1  0  0  0  0
M  END
$$$$
[O-][N+]1=Cc2cc(Cl)ccc2N=CC1
 OpenBabel07182308452D

 13 14  0  0  0  0  0  0  0  0999 V2000
    1.5326   -0.3143    0.0000 N   0  3  0  0  0  0  0  0  0  0  0  0
    0.0998    0.0219    0.0000 C   0  0  0  0  0  0  0  0  0  0  0  0
    0.7431   -0.4897    0.0000 C   0  0  0  0  0  0  0  0  0  0  0  0
    0.7431    1.3669    0.0000 N   0  0  0  0  0  0  0  0  0  0  0  0
    1.8982    0.4312    0.0000 C   0  0  0  0  0  0  0  0  0  0  0  0
    0.0998    0.8553    0.0000 C   0  0  0  0  0  0  0  0  0  0  0  0
    1.5326    1.1916    0.0000 C   0  0  0  0  0  0  0  0  0  0  0  0
    2.0493   -0.9576    0.0000 O   0  5  0  0  0  0  0  0  0  0  0  0
   -0.6165   -0.3874    0.0000 C   0  0  0  0  0  0  0  0  0  0  0  0
   -0.6165    1.2646    0.0000 C   0  0  0  0  0  0  0  0  0  0  0  0
   -1.3329    0.0073    0.0000 C   0  0  0  0  0  0  0  0  0  0  0  0
   -1.3329    0.8698    0.0000 C   0  0  0  0  0  0  0  0  0  0  0  0
   -2.0493   -0.4312    0.0000 Cl  0  0  0  0  0  0  0  0  0  0  0  0
  2  3  1  0  0  0  0
  3  1  2  0  0  0  0
  4  7  2  0  0  0  0
  5  1  1  0  0  0  0
  6  2  2  0  0  0  0
  6  4  1  0  0  0  0
  7  5  1  0  0  0  0
  8  1  1  0  0  0  0
  9  2  1  0  0  0  0
 10  6  1  0  0  0  0
 10 12  2  0  0  0  0
 11  9  2  0  0  0  0
 12 11  1  0  0  0  0
 13 11  1  0  0  0  0
M  CHG  2   1   1   8  -1
M  END
$$$$
O[C@@H]1COC[C@@H]([C@H]1N)O
 OpenBabel07182308452D

 13 13  0  0  0  0  0  0  0  0999 V2000
   -1.4289   -2.0625    0.0000 C   0  0  0  0  0  0  0  0  0  0  0  0
   -1.4289   -2.8875    0.0000 C   0  0  1  0  0  0  0  0  0  0  0  0
   -2.1434   -3.3000    0.0000 C   0  0  2  0  0  0  0  0  0  0  0  0
   -2.8579   -2.8875    0.0000 C   0  0  1  0  0  0  0  0  0  0  0  0
   -2.8579   -2.0625    0.0000 C   0  0  0  0  0  0  0  0  0  0  0  0
   -2.1434   -1.6500    0.0000 O   0  0  0  0  0  0  0  0  0  0  0  0
   -3.5723   -3.3000    0.0000 O   0  0  0  0  0  0  0  0  0  0  0  0
   -2.1434   -4.1250    0.0000 N   0  0  0  0  0  0  0  0  0  0  0  0
   -0.7144   -3.3000    0.0000 O   0  0  0  0  0  0  0  0  0  0  0  0
   -4.4124   -2.8150    0.0000 H   0  0  0  0  0  0  0  0  0  0  0  0
   -3.0267   -4.6350    0.0000 H   0  0  0  0  0  0  0  0  0  0  0  0
   -1.2601   -4.6350    0.0000 H   0  0  0  0  0  0  0  0  0  0  0  0
   -0.7144   -4.2700    0.0000 H   0  0  0  0  0  0  0  0  0  0  0  0
  1  2  1  0  0  0  0
  2  3  1  0  0  0  0
  2  9  1  6  0  0  0
  3  4  1  0  0  0  0
  3  8  1  1  0  0  0
  4  5  1  0  0  0  0
  4  7  1  6  0  0  0
  5  6  1  0  0  0  0
  6  1  1  0  0  0  0
  7 10  1  0  0  0  0
  8 11  1  0  0  0  0
  8 12  1  0  0  0  0
  9 13  1  0  0  0  0
M  END
$$$$
O[C@@H]1[C@@H](O)COC[C@H]1O
 OpenBabel07182308452D

 12 12  0  0  0  0  0  0  0  0999 V2000
   -2.1434    1.6500    0.0000 C   0  0  0  0  0  0  0  0  0  0  0  0
   -1.4289    2.0625    0.0000 O   0  0  0  0  0  0  0  0  0  0  0  0
   -1.4289    2.8875    0.0000 C   0  0  0  0  0  0  0  0  0  0  0  0
   -2.1434    3.3000    0.0000 C   0  0  2  0  0  0  0  0  0  0  0  0
   -2.8579    2.8875    0.0000 C   0  0  1  0  0  0  0  0  0  0  0  0
   -2.8579    2.0625    0.0000 C   0  0  1  0  0  0  0  0  0  0  0  0
   -3.5723    1.6500    0.0000 O   0  0  0  0  0  0  0  0  0  0  0  0
   -3.5723    3.3000    0.0000 O   0  0  0  0  0  0  0  0  0  0  0  0
   -2.1434    4.1250    0.0000 O   0  0  0  0  0  0  0  0  0  0  0  0
   -4.4124    2.1350    0.0000 H   0  0  0  0  0  0  0  0  0  0  0  0
   -3.5723    4.2700    0.0000 H   0  0  0  0  0  0  0  0  0  0  0  0
   -1.3034    4.6100    0.0000 H   0  0  0  0  0  0  0  0  0  0  0  0
  1  2  1  0  0  0  0
  2  3  1  0  0  0  0
  3  4  1  0  0  0  0
  4  5  1  0  0  0  0
  4  9  1  6  0  0  0
  5  6  1  0  0  0  0
  5  8  1  1  0  0  0
  6  1  1  0  0  0  0
  6  7  1  6  0  0  0
  7 10  1  0  0  0  0
  8 11  1  0  0  0  0
  9 12  1  0  0  0  0
M  END
$$$$
O=C1NCc2c1cccc2N
 OpenBabel07182308452D

 13 14  0  0  1  0  0  0  0  0999 V2000
    4.1159   -1.6769    0.0000 O   0  0  0  0  0  0  0  0  0  0  0  0
    4.3412   -0.2289    0.0000 N   0  0  0  0  0  0  0  0  0  0  0  0
    2.3645    1.4212    0.0000 N   0  0  0  0  0  0  0  0  0  0  0  0
    3.8597    0.4351    0.0000 C   0  0  0  0  0  0  0  0  0  0  0  0
    3.0791    0.1836    0.0000 C   0  0  0  0  0  0  0  0  0  0  0  0
    3.8597   -0.8928    0.0000 C   0  0  0  0  0  0  0  0  0  0  0  0
    3.0791   -0.6414    0.0000 C   0  0  0  0  0  0  0  0  0  0  0  0
    2.3645    0.5962    0.0000 C   0  0  0  0  0  0  0  0  0  0  0  0
    2.3645   -1.0539    0.0000 C   0  0  0  0  0  0  0  0  0  0  0  0
    1.6500    0.1836    0.0000 C   0  0  0  0  0  0  0  0  0  0  0  0
    1.6500   -0.6414    0.0000 C   0  0  0  0  0  0  0  0  0  0  0  0
    3.2171    1.9135    0.0000 H   0  0  0  0  0  0  0  0  0  0  0  0
    1.5119    1.9135    0.0000 H   0  0  0  0  0  0  0  0  0  0  0  0
  1  6  2  0  0  0  0
  2  4  1  0  0  0  0
  2  6  1  0  0  0  0
  3  8  1  0  0  0  0
  3 12  1  0  0  0  0
  3 13  1  0  0  0  0
  4  5  1  0  0  0  0
  5  7  2  0  0  0  0
  5  8  1  0  0  0  0
  6  7  1  0  0  0  0
  7  9  1  0  0  0  0
  8 10  2  0  0  0  0
  9 11  2  0  0  0  0
 10 11  1  0  0  0  0
M  END
$$$$
Oc1ccc2c(c1)scc2
 OpenBabel07182308452D

 11 12  0  0  0  0  0  0  0  0999 V2000
    4.5741   -3.8233    0.0000 S   0  0  0  0  0  0  0  0  0  0  0  0
    1.6500   -3.9843    0.0000 O   0  0  0  0  0  0  0  0  0  0  0  0
    4.5741   -2.4954    0.0000 C   0  0  0  0  0  0  0  0  0  0  0  0
    3.7935   -2.7468    0.0000 C   0  0  0  0  0  0  0  0  0  0  0  0
    5.0556   -3.1593    0.0000 C   0  0  0  0  0  0  0  0  0  0  0  0
    3.7935   -3.5718    0.0000 C   0  0  0  0  0  0  0  0  0  0  0  0
    3.0791   -2.3343    0.0000 C   0  0  0  0  0  0  0  0  0  0  0  0
    3.0791   -3.9843    0.0000 C   0  0  0  0  0  0  0  0  0  0  0  0
    2.3645   -2.7468    0.0000 C   0  0  0  0  0  0  0  0  0  0  0  0
    2.3645   -3.5718    0.0000 C   0  0  0  0  0  0  0  0  0  0  0  0
    0.8385   -3.5158    0.0000 H   0  0  0  0  0  0  0  0  0  0  0  0
  1  5  1  0  0  0  0
  1  6  1  0  0  0  0
  2 10  1  0  0  0  0
  2 11  1  0  0  0  0
  3  4  1  0  0  0  0
  3  5  2  0  0  0  0
  4  6  2  0  0  0  0
  4  7  1  0  0  0  0
  6  8  1  0  0  0  0
  7  9  2  0  0  0  0
  8 10  2  0  0  0  0
  9 10  1  0  0  0  0
M  END
$$$$
c1ccn[nH]1
 OpenBabel07182308452D

  5  5  0  0  0  0  0  0  0  0999 V2000
    3.2149    0.8882    0.0000 N   0  0  0  0  0  0  0  0  0  0  0  0
    2.5475    1.3731    0.0000 N   0  0  0  0  0  0  0  0  0  0  0  0
    3.8824    1.3731    0.0000 C   0  0  0  0  0  0  0  0  0  0  0  0
    3.6274    2.1578    0.0000 C   0  0  0  0  0  0  0  0  0  0  0  0
    2.8024    2.1578    0.0000 C   0  0  0  0  0  0  0  0  0  0  0  0
  1  2  1  0  0  0  0
  1  3  1  0  0  0  0
  2  5  2  0  0  0  0
  3  4  2  0  0  0  0
  4  5  1  0  0  0  0
M  END
$$$$
C[NH3+]
 OpenBabel07182308452D

  2  1  0  0  0  0  0  0  0  0999 V2000
    8.0804    1.4438    0.0000 N   0  3  0  0  0  0  0  0  0  0  0  0
    7.3659    1.0313    0.0000 C   0  0  0  0  0  0  0  0  0  0  0  0
  1  2  1  0  0  0  0
M  CHG  1   1   1
M  END
$$$$
Brc1cccc2c1nccn2
 OpenBabel07182308452D

 11 12  0  0  0  0  0  0  0  0999 V2000
    5.0992   -1.2518    0.0000 Br  0  0  0  0  0  0  0  0  0  0  0  0
    6.5511   -0.4554    0.0000 N   0  0  0  0  0  0  0  0  0  0  0  0
    6.5511    1.2518    0.0000 N   0  0  0  0  0  0  0  0  0  0  0  0
    4.3846   -0.0143    0.0000 C   0  0  0  0  0  0  0  0  0  0  0  0
    5.0992   -0.4268    0.0000 C   0  0  0  0  0  0  0  0  0  0  0  0
    5.8136   -0.0143    0.0000 C   0  0  0  0  0  0  0  0  0  0  0  0
    4.3846    0.8107    0.0000 C   0  0  0  0  0  0  0  0  0  0  0  0
    5.8136    0.8107    0.0000 C   0  0  0  0  0  0  0  0  0  0  0  0
    5.0992    1.2232    0.0000 C   0  0  0  0  0  0  0  0  0  0  0  0
    7.2986   -0.0314    0.0000 C   0  0  0  0  0  0  0  0  0  0  0  0
    7.2986    0.8279    0.0000 C   0  0  0  0  0  0  0  0  0  0  0  0
  1  5  1  0  0  0  0
  2  6  2  0  0  0  0
  2 10  1  0  0  0  0
  3  8  2  0  0  0  0
  3 11  1  0  0  0  0
  4  5  2  0  0  0  0
  4  7  1  0  0  0  0
  5  6  1  0  0  0  0
  6  8  1  0  0  0  0
  7  9  2  0  0  0  0
  8  9  1  0  0  0  0
 10 11  2  0  0  0  0
M  END
$$$$
NC1=NCCN1
 OpenBabel07182308452D

  8  8  0  0  0  0  0  0  0  0999 V2000
    2.2020   -0.3499    0.0000 N   0  0  0  0  0  0  0  0  0  0  0  0
    3.6702   -0.4268    0.0000 N   0  0  0  0  0  0  0  0  0  0  0  0
    2.8694    0.8062    0.0000 N   0  0  0  0  0  0  0  0  0  0  0  0
    1.6500    0.2633    0.0000 C   0  0  0  0  0  0  0  0  0  0  0  0
    2.0625    0.9777    0.0000 C   0  0  0  0  0  0  0  0  0  0  0  0
    2.9557   -0.0143    0.0000 C   0  0  0  0  0  0  0  0  0  0  0  0
    1.9973   -1.3129    0.0000 H   0  0  0  0  0  0  0  0  0  0  0  0
    3.6702   -1.4113    0.0000 H   0  0  0  0  0  0  0  0  0  0  0  0
  1  4  1  0  0  0  0
  1  6  1  0  0  0  0
  1  7  1  0  0  0  0
  2  6  1  0  0  0  0
  2  8  1  0  0  0  0
  3  5  1  0  0  0  0
  3  6  2  0  0  0  0
  4  5  1  0  0  0  0
M  END
$$$$
O=C1CC[C@@H]2[C@@H](C1)c1c(O)cccc1OC2(C)C
 OpenBabel07182308452D

 21 23  0  0  1  0  0  0  0  0999 V2000
    8.8492   -1.5184    0.0000 O   0  0  0  0  0  0  0  0  0  0  0  0
    9.5737    2.2512    0.0000 O   0  0  0  0  0  0  0  0  0  0  0  0
    7.4068    0.9851    0.0000 O   0  0  0  0  0  0  0  0  0  0  0  0
    9.5637   -0.2809    0.0000 C   0  0  2  0  0  0  0  0  0  0  0  0
    8.8492    0.1316    0.0000 C   0  0  1  0  0  0  0  0  0  0  0  0
    9.5637   -1.1059    0.0000 C   0  0  0  0  0  0  0  0  0  0  0  0
   10.3145    0.1372    0.0000 C   0  0  0  0  0  0  0  0  0  0  0  0
    8.8360    0.9908    0.0000 C   0  0  0  0  0  0  0  0  0  0  0  0
    8.1347   -0.2809    0.0000 C   0  0  0  0  0  0  0  0  0  0  0  0
   10.3211    0.9965    0.0000 C   0  0  0  0  0  0  0  0  0  0  0  0
    8.1347   -1.1059    0.0000 C   0  0  0  0  0  0  0  0  0  0  0  0
    9.5769    1.4263    0.0000 C   0  0  0  0  0  0  0  0  0  0  0  0
    9.9762   -1.8204    0.0000 C   0  0  0  0  0  0  0  0  0  0  0  0
   10.3888   -1.1059    0.0000 C   0  0  0  0  0  0  0  0  0  0  0  0
    7.3973    0.1602    0.0000 C   0  0  0  0  0  0  0  0  0  0  0  0
    6.6497   -1.1231    0.0000 C   0  0  0  0  0  0  0  0  0  0  0  0
    7.3973   -1.5471    0.0000 C   0  0  0  0  0  0  0  0  0  0  0  0
    6.6497   -0.2638    0.0000 C   0  0  0  0  0  0  0  0  0  0  0  0
   10.1328   -0.6153    0.0000 H   0  0  0  0  0  0  0  0  0  0  0  0
    9.4183    0.4660    0.0000 H   0  0  0  0  0  0  0  0  0  0  0  0
    8.2236    1.4442    0.0000 H   0  0  0  0  0  0  0  0  0  0  0  0
  1  6  1  0  0  0  0
  1 11  1  0  0  0  0
  2 12  2  0  0  0  0
  3 15  1  0  0  0  0
  3 21  1  0  0  0  0
  4  5  1  6  0  0  0
  4  6  1  0  0  0  0
  4  7  1  0  0  0  0
  4 19  1  0  0  0  0
  5  8  1  0  0  0  0
  5  9  1  0  0  0  0
  5 20  1  1  0  0  0
  6 13  1  0  0  0  0
  6 14  1  0  0  0  0
  7 10  1  0  0  0  0
  8 12  1  0  0  0  0
  9 11  1  0  0  0  0
  9 15  2  0  0  0  0
 10 12  1  0  0  0  0
 11 17  2  0  0  0  0
 15 18  1  0  0  0  0
 16 17  1  0  0  0  0
 16 18  2  0  0  0  0
M  END
$$$$
n1cncnc1
 OpenBabel07182308452D

  6  6  0  0  0  0  0  0  0  0999 V2000
    4.5079    0.2063    0.0000 N   0  0  0  0  0  0  0  0  0  0  0  0
    3.0790    0.2063    0.0000 N   0  0  0  0  0  0  0  0  0  0  0  0
    3.7934   -1.0312    0.0000 N   0  0  0  0  0  0  0  0  0  0  0  0
    3.7934    0.6188    0.0000 C   0  0  0  0  0  0  0  0  0  0  0  0
    4.5079   -0.6188    0.0000 C   0  0  0  0  0  0  0  0  0  0  0  0
    3.0790   -0.6188    0.0000 C   0  0  0  0  0  0  0  0  0  0  0  0
  1  4  2  0  0  0  0
  1  5  1  0  0  0  0
  2  4  1  0  0  0  0
  2  6  2  0  0  0  0
  3  5  2  0  0  0  0
  3  6  1  0  0  0  0
M  END
$$$$
CN1C(=O)CC2(CC1=O)CCCC2
 OpenBabel07182308452D

 13 14  0  0  0  0  0  0  0  0999 V2000
    9.0752   -1.7862    0.0000 O   0  0  0  0  0  0  0  0  0  0  0  0
    9.0752    1.0717    0.0000 O   0  0  0  0  0  0  0  0  0  0  0  0
    9.0752   -0.3572    0.0000 N   0  0  0  0  0  0  0  0  0  0  0  0
   10.7252   -0.3572    0.0000 C   0  0  0  0  0  0  0  0  0  0  0  0
   11.2102   -1.0247    0.0000 C   0  0  0  0  0  0  0  0  0  0  0  0
   11.2102    0.3102    0.0000 C   0  0  0  0  0  0  0  0  0  0  0  0
   11.9948   -0.7697    0.0000 C   0  0  0  0  0  0  0  0  0  0  0  0
   11.9948    0.0553    0.0000 C   0  0  0  0  0  0  0  0  0  0  0  0
   10.3127   -1.0717    0.0000 C   0  0  0  0  0  0  0  0  0  0  0  0
   10.3127    0.3572    0.0000 C   0  0  0  0  0  0  0  0  0  0  0  0
    9.4877   -1.0717    0.0000 C   0  0  0  0  0  0  0  0  0  0  0  0
    9.4877    0.3572    0.0000 C   0  0  0  0  0  0  0  0  0  0  0  0
    8.2502   -0.3572    0.0000 C   0  0  0  0  0  0  0  0  0  0  0  0
  1 11  2  0  0  0  0
  2 12  2  0  0  0  0
  3 11  1  0  0  0  0
  3 12  1  0  0  0  0
  3 13  1  0  0  0  0
  4  5  1  0  0  0  0
  4  6  1  0  0  0  0
  4  9  1  0  0  0  0
  4 10  1  0  0  0  0
  5  7  1  0  0  0  0
  6  8  1  0  0  0  0
  7  8  1  0  0  0  0
  9 11  1  0  0  0  0
 10 12  1  0  0  0  0
M  END
$$$$
C[P@H](=O)O
 OpenBabel07182308452D

  4  3  0  0  0  0  0  0  0  0999 V2000
    0.6599    0.8884    0.0000 P   0  0  2  0  0  0  0  0  0  0  0  0
    0.2475    0.1739    0.0000 O   0  0  0  0  0  0  0  0  0  0  0  0
    1.0725    1.6028    0.0000 C   0  0  0  0  0  0  0  0  0  0  0  0
    1.3744    0.4757    0.0000 O   0  0  0  0  0  0  0  0  0  0  0  0
  1  2  1  0  0  0  0
  1  3  1  6  0  0  0
  1  4  2  0  0  0  0
M  END
$$$$
C=CC#N
 OpenBabel07182308452D

  4  3  0  0  0  0  0  0  0  0999 V2000
    5.9370   -0.0784    0.0000 N   0  0  0  0  0  0  0  0  0  0  0  0
    4.5080    0.7466    0.0000 C   0  0  0  0  0  0  0  0  0  0  0  0
    3.7935    0.3341    0.0000 C   0  0  0  0  0  0  0  0  0  0  0  0
    5.2224    0.3341    0.0000 C   0  0  0  0  0  0  0  0  0  0  0  0
  1  4  3  0  0  0  0
  2  3  2  0  0  0  0
  2  4  1  0  0  0  0
M  END
$$$$
Cc1c[nH]c(=O)[nH]c1=O
 OpenBabel07182308452D

 10 10  0  0  1  0  0  0  0  0999 V2000
    2.7595    0.3073    0.0000 O   0  0  0  0  0  0  0  0  0  0  0  0
    4.1884    2.7823    0.0000 O   0  0  0  0  0  0  0  0  0  0  0  0
    4.1884    0.3073    0.0000 N   0  0  0  0  0  0  0  0  0  0  0  0
    3.4739    1.5448    0.0000 N   0  0  0  0  0  0  0  0  0  0  0  0
    4.9029    0.7198    0.0000 C   0  0  0  0  0  0  0  0  0  0  0  0
    3.4739    0.7198    0.0000 C   0  0  0  0  0  0  0  0  0  0  0  0
    4.9029    1.5448    0.0000 C   0  0  0  0  0  0  0  0  0  0  0  0
    4.1884    1.9573    0.0000 C   0  0  0  0  0  0  0  0  0  0  0  0
    5.6174    1.9573    0.0000 C   0  0  0  0  0  0  0  0  0  0  0  0
    2.6213    2.0371    0.0000 H   0  0  0  0  0  0  0  0  0  0  0  0
  1  6  2  0  0  0  0
  2  8  2  0  0  0  0
  3  5  1  0  0  0  0
  3  6  1  0  0  0  0
  4  6  1  0  0  0  0
  4  8  1  0  0  0  0
  4 10  1  0  0  0  0
  5  7  2  0  0  0  0
  7  8  1  0  0  0  0
  7  9  1  0  0  0  0
M  END
$$$$
[N-]=[N+]=N
 OpenBabel07182308452D

  3  2  0  0  1  0  0  0  0  0999 V2000
    3.2909   -2.4547    0.0000 N   0  0  0  0  0  0  0  0  0  0  0  0
    2.4705   -2.3685    0.0000 N   0  3  0  0  0  0  0  0  0  0  0  0
    1.6500   -2.2822    0.0000 N   0  5  0  0  0  0  0  0  0  0  0  0
  1  2  2  0  0  0  0
  2  3  2  0  0  0  0
M  CHG  2   2   1   3  -1
M  END
$$$$
C[C@@H]1CCN(C1)C
 OpenBabel07182308452D

  7  7  0  0  1  0  0  0  0  0999 V2000
    6.2378    0.0455    0.0000 N   0  0  0  0  0  0  0  0  0  0  0  0
    4.9320    0.3230    0.0000 C   0  0  2  0  0  0  0  0  0  0  0  0
    4.1116    0.2368    0.0000 C   0  0  0  0  0  0  0  0  0  0  0  0
    5.3446    1.0375    0.0000 C   0  0  0  0  0  0  0  0  0  0  0  0
    5.4841   -0.2902    0.0000 C   0  0  0  0  0  0  0  0  0  0  0  0
    6.1515    0.8659    0.0000 C   0  0  0  0  0  0  0  0  0  0  0  0
    6.9523   -0.3671    0.0000 C   0  0  0  0  0  0  0  0  0  0  0  0
  1  5  1  0  0  0  0
  1  6  1  0  0  0  0
  1  7  1  0  0  0  0
  2  3  1  6  0  0  0
  2  4  1  0  0  0  0
  2  5  1  0  0  0  0
  4  6  1  0  0  0  0
M  END
$$$$
Cc1ccc2c(c1)CCO2
 OpenBabel07182308452D

 10 11  0  0  1  0  0  0  0  0999 V2000
   10.5908   -1.4435    0.0000 O   0  0  0  0  0  0  0  0  0  0  0  0
    7.6667    0.0455    0.0000 C   0  0  0  0  0  0  0  0  0  0  0  0
    8.3812   -0.3671    0.0000 C   0  0  0  0  0  0  0  0  0  0  0  0
    9.0957    0.0455    0.0000 C   0  0  0  0  0  0  0  0  0  0  0  0
    8.3812   -1.1921    0.0000 C   0  0  0  0  0  0  0  0  0  0  0  0
    9.8102   -0.3671    0.0000 C   0  0  0  0  0  0  0  0  0  0  0  0
    9.8102   -1.1921    0.0000 C   0  0  0  0  0  0  0  0  0  0  0  0
   10.5908   -0.1157    0.0000 C   0  0  0  0  0  0  0  0  0  0  0  0
    9.0957   -1.6046    0.0000 C   0  0  0  0  0  0  0  0  0  0  0  0
   11.0723   -0.7796    0.0000 C   0  0  0  0  0  0  0  0  0  0  0  0
  1  7  1  0  0  0  0
  1 10  1  0  0  0  0
  2  3  1  0  0  0  0
  3  4  2  0  0  0  0
  3  5  1  0  0  0  0
  4  6  1  0  0  0  0
  5  9  2  0  0  0  0
  6  7  2  0  0  0  0
  6  8  1  0  0  0  0
  7  9  1  0  0  0  0
  8 10  1  0  0  0  0
M  END
$$$$
CN1CC[C@@]23[C@@]4([C@H]1Cc1c3c(O[C@H]2C(=O)CC4)ccc1)O
 OpenBabel07182308452D

 22 26  0  0  1  0  0  0  0  0999 V2000
   -0.7022   -0.0077    0.0000 C   0  0  0  0  0  0  0  0  0  0  0  0
   -1.4167    0.4048    0.0000 C   0  0  0  0  0  0  0  0  0  0  0  0
    0.0122    0.4048    0.0000 C   0  0  0  0  0  0  0  0  0  0  0  0
   -1.4167    1.2298    0.0000 C   0  0  0  0  0  0  0  0  0  0  0  0
    0.0122    1.2298    0.0000 C   0  0  0  0  0  0  0  0  0  0  0  0
   -0.7022    1.6423    0.0000 C   0  0  0  0  0  0  0  0  0  0  0  0
   -0.6992   -0.8291    0.0000 C   0  0  2  0  0  0  0  0  0  0  0  0
    0.0087   -1.2460    0.0000 C   0  0  2  0  0  0  0  0  0  0  0  0
   -1.4150   -1.2340    0.0000 C   0  0  1  0  0  0  0  0  0  0  0  0
    0.7246   -0.8337    0.0000 C   0  0  1  0  0  0  0  0  0  0  0  0
    0.0045   -2.0636    0.0000 C   0  0  0  0  0  0  0  0  0  0  0  0
   -2.2394   -0.3573    0.0000 O   0  0  0  0  0  0  0  0  0  0  0  0
   -1.4229   -2.0518    0.0000 C   0  0  0  0  0  0  0  0  0  0  0  0
    0.7288   -0.0123    0.0000 C   0  0  0  0  0  0  0  0  0  0  0  0
    1.4397   -1.2543    0.0000 N   0  0  0  0  0  0  0  0  0  0  0  0
   -0.7150   -2.4719    0.0000 C   0  0  0  0  0  0  0  0  0  0  0  0
   -2.1365   -2.4660    0.0000 O   0  0  0  0  0  0  0  0  0  0  0  0
    2.2394   -1.0357    0.0000 C   0  0  0  0  0  0  0  0  0  0  0  0
    0.6791   -1.7267    0.0000 O   0  0  0  0  0  0  0  0  0  0  0  0
    1.4376   -0.4168    0.0000 C   0  0  0  0  0  0  0  0  0  0  0  0
    0.0161   -0.4157    0.0000 C   0  0  0  0  0  0  0  0  0  0  0  0
    0.5837   -2.6920    0.0000 H   0  0  0  0  0  0  0  0  0  0  0  0
  1  2  1  0  0  0  0
  1  3  2  0  0  0  0
  2 12  1  0  0  0  0
  2  4  2  0  0  0  0
  3 14  1  0  0  0  0
  3  5  1  0  0  0  0
  4  6  1  0  0  0  0
  5  6  2  0  0  0  0
  7  1  1  0  0  0  0
  7  8  1  6  0  0  0
  7 21  1  0  0  0  0
  8 11  1  0  0  0  0
  8 19  1  1  0  0  0
  9  7  1  6  0  0  0
  9 12  1  0  0  0  0
  9 13  1  0  0  0  0
 10  8  1  1  0  0  0
 10 15  1  0  0  0  0
 10 14  1  0  0  0  0
 11 16  1  0  0  0  0
 13 17  2  0  0  0  0
 13 16  1  0  0  0  0
 15 18  1  0  0  0  0
 19 22  1  0  0  0  0
 20 15  1  0  0  0  0
 21 20  1  0  0  0  0
M  END
$$$$
O=C1CC(=O)c2c1cccc2
 OpenBabel07182308452D

 11 12  0  0  0  0  0  0  0  0999 V2000
    4.1159    1.4482    0.0000 O   0  0  0  0  0  0  0  0  0  0  0  0
    4.1159   -1.4482    0.0000 O   0  0  0  0  0  0  0  0  0  0  0  0
    4.3412    0.0000    0.0000 C   0  0  0  0  0  0  0  0  0  0  0  0
    3.8597    0.6639    0.0000 C   0  0  0  0  0  0  0  0  0  0  0  0
    3.8597   -0.6639    0.0000 C   0  0  0  0  0  0  0  0  0  0  0  0
    3.0791    0.4125    0.0000 C   0  0  0  0  0  0  0  0  0  0  0  0
    3.0791   -0.4125    0.0000 C   0  0  0  0  0  0  0  0  0  0  0  0
    2.3645    0.8250    0.0000 C   0  0  0  0  0  0  0  0  0  0  0  0
    2.3645   -0.8250    0.0000 C   0  0  0  0  0  0  0  0  0  0  0  0
    1.6500    0.4125    0.0000 C   0  0  0  0  0  0  0  0  0  0  0  0
    1.6500   -0.4125    0.0000 C   0  0  0  0  0  0  0  0  0  0  0  0
  1  4  2  0  0  0  0
  2  5  2  0  0  0  0
  3  4  1  0  0  0  0
  3  5  1  0  0  0  0
  4  6  1  0  0  0  0
  5  7  1  0  0  0  0
  6  7  1  0  0  0  0
  6  8  2  0  0  0  0
  7  9  2  0  0  0  0
  8 10  1  0  0  0  0
  9 11  1  0  0  0  0
 10 11  2  0  0  0  0
M  END
$$$$
Cn1cccc1C
 OpenBabel07182308452D

  7  7  0  0  0  0  0  0  0  0999 V2000
    3.1652    1.3572    0.0000 N   0  0  0  0  0  0  0  0  0  0  0  0
    3.9722    1.5287    0.0000 C   0  0  0  0  0  0  0  0  0  0  0  0
    3.0790    0.5368    0.0000 C   0  0  0  0  0  0  0  0  0  0  0  0
    4.3847    0.8143    0.0000 C   0  0  0  0  0  0  0  0  0  0  0  0
    3.8327    0.2011    0.0000 C   0  0  0  0  0  0  0  0  0  0  0  0
    4.3078    2.2824    0.0000 C   0  0  0  0  0  0  0  0  0  0  0  0
    2.5521    1.9092    0.0000 C   0  0  0  0  0  0  0  0  0  0  0  0
  1  2  1  0  0  0  0
  1  3  1  0  0  0  0
  1  7  1  0  0  0  0
  2  4  2  0  0  0  0
  2  6  1  0  0  0  0
  3  5  2  0  0  0  0
  4  5  1  0  0  0  0
M  END
$$$$
Cc1[nH]cnc1C
 OpenBabel07182308452D

  8  8  0  0  0  0  0  0  0  0999 V2000
    3.2556    0.5684    0.0000 N   0  0  0  0  0  0  0  0  0  0  0  0
    3.9085    0.0939    0.0000 C   0  0  0  0  0  0  0  0  0  0  0  0
    3.6590   -0.6736    0.0000 N   0  0  0  0  0  0  0  0  0  0  0  0
    2.6026    0.0938    0.0000 C   0  0  0  0  0  0  0  0  0  0  0  0
    2.8519   -0.6736    0.0000 C   0  0  0  0  0  0  0  0  0  0  0  0
    2.2254   -1.1903    0.0000 C   0  0  0  0  0  0  0  0  0  0  0  0
    1.8104    0.3240    0.0000 C   0  0  0  0  0  0  0  0  0  0  0  0
    3.2556    1.5529    0.0000 H   0  0  0  0  0  0  0  0  0  0  0  0
  1  8  1  0  0  0  0
  2  1  1  0  0  0  0
  3  2  2  0  0  0  0
  4  1  1  0  0  0  0
  5  3  1  0  0  0  0
  5  4  2  0  0  0  0
  6  5  1  0  0  0  0
  7  4  1  0  0  0  0
M  END
$$$$
N/C=N\C#N
 OpenBabel07182308452D

  6  5  0  0  0  0  0  0  0  0999 V2000
   -1.1643   -1.0903    0.0000 N   0  0  0  0  0  0  0  0  0  0  0  0
   -2.0098   -0.6369    0.0000 C   0  0  0  0  0  0  0  0  0  0  0  0
   -2.0098    0.2779    0.0000 N   0  0  0  0  0  0  0  0  0  0  0  0
   -1.2196    0.7340    0.0000 C   0  0  0  0  0  0  0  0  0  0  0  0
   -0.4295    1.1903    0.0000 N   0  0  0  0  0  0  0  0  0  0  0  0
   -1.1506   -2.0747    0.0000 H   0  0  0  0  0  0  0  0  0  0  0  0
  1  6  1  0  0  0  0
  2  1  1  0  0  0  0
  3  2  2  0  0  0  0
  3  4  1  0  0  0  0
  5  4  3  0  0  0  0
M  END
$$$$
CN1CCC(CC1)O
 OpenBabel07182308452D

  9  9  0  0  0  0  0  0  0  0999 V2000
    3.3810    2.9981    0.0000 O   0  0  0  0  0  0  0  0  0  0  0  0
    3.7935    0.6335    0.0000 N   0  0  0  0  0  0  0  0  0  0  0  0
    3.7935    2.2836    0.0000 C   0  0  0  0  0  0  0  0  0  0  0  0
    3.0791    1.8711    0.0000 C   0  0  0  0  0  0  0  0  0  0  0  0
    4.5080    1.8711    0.0000 C   0  0  0  0  0  0  0  0  0  0  0  0
    3.0791    1.0460    0.0000 C   0  0  0  0  0  0  0  0  0  0  0  0
    4.5080    1.0460    0.0000 C   0  0  0  0  0  0  0  0  0  0  0  0
    3.7935   -0.1915    0.0000 C   0  0  0  0  0  0  0  0  0  0  0  0
    3.8660    3.8381    0.0000 H   0  0  0  0  0  0  0  0  0  0  0  0
  1  3  1  0  0  0  0
  1  9  1  0  0  0  0
  2  6  1  0  0  0  0
  2  7  1  0  0  0  0
  2  8  1  0  0  0  0
  3  4  1  0  0  0  0
  3  5  1  0  0  0  0
  4  6  1  0  0  0  0
  5  7  1  0  0  0  0
M  END
$$$$
Cc1cncs1
 OpenBabel07182308452D

  6  6  0  0  0  0  0  0  0  0999 V2000
    5.6298    0.3953    0.0000 C   0  0  0  0  0  0  0  0  0  0  0  0
    6.3436   -0.0105    0.0000 C   0  0  0  0  0  0  0  0  0  0  0  0
    6.3394   -0.8356    0.0000 C   0  0  0  0  0  0  0  0  0  0  0  0
    7.1303    0.2373    0.0000 S   0  0  0  0  0  0  0  0  0  0  0  0
    7.1217   -1.0921    0.0000 N   0  0  0  0  0  0  0  0  0  0  0  0
    7.6089   -0.4296    0.0000 C   0  0  0  0  0  0  0  0  0  0  0  0
  1  2  1  0  0  0  0
  2  3  2  0  0  0  0
  2  4  1  0  0  0  0
  3  5  1  0  0  0  0
  4  6  1  0  0  0  0
  5  6  2  0  0  0  0
M  END
$$$$
Oc1ccc2c(c1)[C@]13CCCC[C@H]3[C@@H](C2)N(CC1)C
 OpenBabel07182308452D

 21 24  0  0  1  0  0  0  0  0999 V2000
   14.4191  -12.1888    0.0000 C   0  0  2  0  0  0  0  0  0  0  0  0
   15.1319  -12.6085    0.0000 C   0  0  2  0  0  0  0  0  0  0  0  0
   14.4191  -11.3674    0.0000 C   0  0  0  0  0  0  0  0  0  0  0  0
   15.1319  -11.6787    0.0000 C   0  0  0  0  0  0  0  0  0  0  0  0
   13.7065  -12.5977    0.0000 C   0  0  0  0  0  0  0  0  0  0  0  0
   15.8447  -12.1961    0.0000 C   0  0  2  0  0  0  0  0  0  0  0  0
   15.1680  -13.4333    0.0000 C   0  0  0  0  0  0  0  0  0  0  0  0
   15.1392  -10.9550    0.0000 C   0  0  0  0  0  0  0  0  0  0  0  0
   13.7028  -10.9550    0.0000 C   0  0  0  0  0  0  0  0  0  0  0  0
   16.5684  -11.6787    0.0000 C   0  0  0  0  0  0  0  0  0  0  0  0
   13.7425  -13.4226    0.0000 C   0  0  0  0  0  0  0  0  0  0  0  0
   16.5611  -12.6122    0.0000 N   0  0  0  0  0  0  0  0  0  0  0  0
   15.8484  -11.3711    0.0000 C   0  0  0  0  0  0  0  0  0  0  0  0
   14.4517  -13.8350    0.0000 C   0  0  0  0  0  0  0  0  0  0  0  0
   15.1392  -10.1300    0.0000 C   0  0  0  0  0  0  0  0  0  0  0  0
   13.7028  -10.1300    0.0000 C   0  0  0  0  0  0  0  0  0  0  0  0
   17.4801  -12.1381    0.0000 C   0  0  0  0  0  0  0  0  0  0  0  0
   14.4191   -9.7140    0.0000 C   0  0  0  0  0  0  0  0  0  0  0  0
   12.9864   -9.7140    0.0000 O   0  0  0  0  0  0  0  0  0  0  0  0
   15.9279  -13.1440    0.0000 H   0  0  0  0  0  0  0  0  0  0  0  0
   12.9887   -8.7770    0.0000 H   0  0  0  0  0  0  0  0  0  0  0  0
  1  2  1  6  0  0  0
  1  3  1  0  0  0  0
  1  4  1  0  0  0  0
  1  5  1  0  0  0  0
  2 20  1  1  0  0  0
  2  7  1  0  0  0  0
  3  8  2  0  0  0  0
  3  9  1  0  0  0  0
  4 10  1  0  0  0  0
  5 11  1  0  0  0  0
  6 12  1  0  0  0  0
  6 13  1  0  0  0  0
  6  2  1  1  0  0  0
  7 14  1  0  0  0  0
  8 15  1  0  0  0  0
  8 13  1  0  0  0  0
  9 16  2  0  0  0  0
 10 12  1  0  0  0  0
 11 14  1  0  0  0  0
 12 17  1  0  0  0  0
 15 18  2  0  0  0  0
 16 19  1  0  0  0  0
 16 18  1  0  0  0  0
 19 21  1  0  0  0  0
M  END
$$$$
O[C@H]1CC[C@]2([C@@H](C1)CC[C@@H]1[C@@H]2CC[C@]2([C@]1(O)CCC2)C)C
 OpenBabel07182308452D

 26 29  0  0  0  0  0  0  0  0999 V2000
   -1.5313    0.3875    0.0000 C   0  0  0  0  0  0  0  0  0  0  0  0
   -2.2457   -0.0250    0.0000 C   0  0  0  0  0  0  0  0  0  0  0  0
   -1.5313   -1.2625    0.0000 C   0  0  0  0  0  0  0  0  0  0  0  0
   -0.1023   -1.2625    0.0000 C   0  0  0  0  0  0  0  0  0  0  0  0
    0.6121   -0.8500    0.0000 C   0  0  0  0  0  0  0  0  0  0  0  0
   -0.1023    1.2125    0.0000 C   0  0  0  0  0  0  0  0  0  0  0  0
    2.1112    0.1326    0.0000 C   0  0  0  0  0  0  0  0  0  0  0  0
   -2.2457   -0.8500    0.0000 C   0  0  1  0  0  0  0  0  0  0  0  0
   -0.8168   -0.8500    0.0000 C   0  0  1  0  0  0  0  0  0  0  0  0
   -0.8168   -1.6750    0.0000 H   0  0  0  0  0  0  0  0  0  0  0  0
   -0.8168   -0.0250    0.0000 C   0  0  2  0  0  0  0  0  0  0  0  0
   -0.8168    0.8000    0.0000 C   0  0  0  0  0  0  0  0  0  0  0  0
   -0.1023    0.3875    0.0000 C   0  0  2  0  0  0  0  0  0  0  0  0
   -0.1023   -0.4375    0.0000 H   0  0  0  0  0  0  0  0  0  0  0  0
    1.3266    0.3875    0.0000 C   0  0  1  0  0  0  0  0  0  0  0  0
    1.3266   -0.4375    0.0000 O   0  0  0  0  0  0  0  0  0  0  0  0
    0.6121    1.6250    0.0000 C   0  0  0  0  0  0  0  0  0  0  0  0
    1.3266    1.2125    0.0000 C   0  0  1  0  0  0  0  0  0  0  0  0
    1.3266    2.0375    0.0000 C   0  0  0  0  0  0  0  0  0  0  0  0
    2.1112    1.4675    0.0000 C   0  0  0  0  0  0  0  0  0  0  0  0
    2.9081    1.6810    0.0000 H   0  0  0  0  0  0  0  0  0  0  0  0
    0.6121   -0.0250    0.0000 C   0  0  2  0  0  0  0  0  0  0  0  0
    0.6121    0.8000    0.0000 H   0  0  0  0  0  0  0  0  0  0  0  0
    2.5961    0.8000    0.0000 C   0  0  0  0  0  0  0  0  0  0  0  0
   -2.9602   -1.2625    0.0000 O   0  0  0  0  0  0  0  0  0  0  0  0
    0.4866   -0.9225    0.0000 H   0  0  0  0  0  0  0  0  0  0  0  0
  1  2  1  0  0  0  0
  1 11  1  0  0  0  0
  2  8  1  0  0  0  0
  3  9  1  0  0  0  0
  4  5  1  0  0  0  0
  5 22  1  0  0  0  0
  6 13  1  0  0  0  0
  7 24  1  0  0  0  0
  8  3  1  0  0  0  0
  8 25  1  1  0  0  0
  9 11  1  1  0  0  0
  9  4  1  0  0  0  0
  9 10  1  0  0  0  0
 11 13  1  6  0  0  0
 11 12  1  0  0  0  0
 13 22  1  1  0  0  0
 13 14  1  0  0  0  0
 15 22  1  6  0  0  0
 15  7  1  0  0  0  0
 15 16  1  0  0  0  0
 16 26  1  0  0  0  0
 17  6  1  0  0  0  0
 17 18  1  0  0  0  0
 18 15  1  1  0  0  0
 18 19  1  0  0  0  0
 20 18  1  0  0  0  0
 20 24  1  0  0  0  0
 20 21  1  0  0  0  0
 22 23  1  1  0  0  0
M  END
$$$$
Oc1cc(O)c2c(c1)CNC(=O)[C@H]1NC(=O)[C@@H](c3cc2c(O)cc3)NC(=O)[C@@H]2NC(=O)[C@H](C)NC(=O)[C@H](N)[C@H](O)c3ccc(Oc4cc2cc(Oc2ccc([C@H]1O)cc2Cl)c4O)c(Cl)c3
 OpenBabel07182308452D

 76 83  0  0  1  0  0  0  0  0999 V2000
    0.0000    0.8250    0.0000 C   0  0  0  0  0  0  0  0  0  0  0  0
    0.7145    0.4125    0.0000 C   0  0  0  0  0  0  0  0  0  0  0  0
   -0.7145    0.4125    0.0000 C   0  0  0  0  0  0  0  0  0  0  0  0
    0.0000   -0.8250    0.0000 C   0  0  0  0  0  0  0  0  0  0  0  0
   -0.7145   -0.4125    0.0000 C   0  0  0  0  0  0  0  0  0  0  0  0
    0.7145   -0.4125    0.0000 C   0  0  0  0  0  0  0  0  0  0  0  0
    1.4290    0.8250    0.0000 O   0  0  0  0  0  0  0  0  0  0  0  0
   -1.4289    0.8250    0.0000 O   0  0  0  0  0  0  0  0  0  0  0  0
   -4.2867   -0.8249    0.0000 C   0  0  1  0  0  0  0  0  0  0  0  0
    4.2867   -0.8250    0.0000 C   0  0  1  0  0  0  0  0  0  0  0  0
   -3.5722   -0.4124    0.0000 C   0  0  0  0  0  0  0  0  0  0  0  0
    3.5723   -0.4125    0.0000 C   0  0  0  0  0  0  0  0  0  0  0  0
   -2.1433    0.4126    0.0000 C   0  0  0  0  0  0  0  0  0  0  0  0
    2.1433    0.4125    0.0000 C   0  0  0  0  0  0  0  0  0  0  0  0
   -2.1434   -0.4124    0.0000 C   0  0  0  0  0  0  0  0  0  0  0  0
    2.8578    0.8249    0.0000 C   0  0  0  0  0  0  0  0  0  0  0  0
    3.5723    0.4124    0.0000 C   0  0  0  0  0  0  0  0  0  0  0  0
    2.8578   -0.8250    0.0000 C   0  0  0  0  0  0  0  0  0  0  0  0
   -3.5722    0.4126    0.0000 C   0  0  0  0  0  0  0  0  0  0  0  0
   -2.8578    0.8251    0.0000 C   0  0  0  0  0  0  0  0  0  0  0  0
    2.1433   -0.4125    0.0000 C   0  0  0  0  0  0  0  0  0  0  0  0
    2.8578    1.6499    0.0000 Cl  0  0  0  0  0  0  0  0  0  0  0  0
   -5.0012   -0.4124    0.0000 O   0  0  0  0  0  0  0  0  0  0  0  0
   -1.4289   -0.8249    0.0000 Cl  0  0  0  0  0  0  0  0  0  0  0  0
    5.0011   -0.4126    0.0000 O   0  0  0  0  0  0  0  0  0  0  0  0
    0.0000    1.6500    0.0000 O   0  0  0  0  0  0  0  0  0  0  0  0
   -2.8578   -0.8249    0.0000 C   0  0  0  0  0  0  0  0  0  0  0  0
    4.2867   -2.4750    0.0000 C   0  0  2  0  0  0  0  0  0  0  0  0
    0.7144   -2.8874    0.0000 N   0  0  0  0  0  0  0  0  0  0  0  0
    3.5722   -2.8874    0.0000 C   0  0  0  0  0  0  0  0  0  0  0  0
   -0.7144   -2.8874    0.0000 C   0  0  0  0  0  0  0  0  0  0  0  0
    2.8578   -2.4749    0.0000 N   0  0  0  0  0  0  0  0  0  0  0  0
   -0.0001   -2.4749    0.0000 C   0  0  1  0  0  0  0  0  0  0  0  0
    1.4289   -2.4749    0.0000 C   0  0  0  0  0  0  0  0  0  0  0  0
    2.1433   -2.8874    0.0000 C   0  0  2  0  0  0  0  0  0  0  0  0
    3.5722   -3.7124    0.0000 O   0  0  0  0  0  0  0  0  0  0  0  0
   -0.7145   -3.7123    0.0000 O   0  0  0  0  0  0  0  0  0  0  0  0
    1.4289   -1.6499    0.0000 O   0  0  0  0  0  0  0  0  0  0  0  0
    2.1433   -3.7124    0.0000 C   0  0  0  0  0  0  0  0  0  0  0  0
    5.0011   -2.8875    0.0000 N   0  0  0  0  0  0  0  0  0  0  0  0
   -4.2867   -2.4748    0.0000 C   0  0  2  0  0  0  0  0  0  0  0  0
   -1.4289   -2.4749    0.0000 N   0  0  0  0  0  0  0  0  0  0  0  0
   -2.1434   -2.8873    0.0000 C   0  0  1  0  0  0  0  0  0  0  0  0
   -5.7156   -2.4748    0.0000 O   0  0  0  0  0  0  0  0  0  0  0  0
   -3.5723   -2.8873    0.0000 N   0  0  0  0  0  0  0  0  0  0  0  0
   -2.8579   -2.4748    0.0000 C   0  0  0  0  0  0  0  0  0  0  0  0
   -2.8579   -1.6499    0.0000 O   0  0  0  0  0  0  0  0  0  0  0  0
   -5.7157   -4.1248    0.0000 C   0  0  0  0  0  0  0  0  0  0  0  0
   -5.0012   -3.7123    0.0000 N   0  0  0  0  0  0  0  0  0  0  0  0
   -5.0012   -2.8873    0.0000 C   0  0  0  0  0  0  0  0  0  0  0  0
   -2.8692   -5.3741    0.0000 C   0  0  0  0  0  0  0  0  0  0  0  0
   -2.1548   -5.7866    0.0000 C   0  0  0  0  0  0  0  0  0  0  0  0
   -2.1547   -4.1367    0.0000 C   0  0  0  0  0  0  0  0  0  0  0  0
   -2.8692   -4.5492    0.0000 C   0  0  0  0  0  0  0  0  0  0  0  0
   -1.4403   -5.3742    0.0000 C   0  0  0  0  0  0  0  0  0  0  0  0
   -1.4403   -4.5492    0.0000 C   0  0  0  0  0  0  0  0  0  0  0  0
   -2.1548   -6.6117    0.0000 O   0  0  0  0  0  0  0  0  0  0  0  0
   -5.7157   -4.9498    0.0000 C   0  0  0  0  0  0  0  0  0  0  0  0
   -6.4301   -5.3623    0.0000 C   0  0  0  0  0  0  0  0  0  0  0  0
   -5.7157   -6.5998    0.0000 C   0  0  0  0  0  0  0  0  0  0  0  0
   -5.0012   -5.3623    0.0000 C   0  0  0  0  0  0  0  0  0  0  0  0
   -6.4301   -6.1873    0.0000 C   0  0  0  0  0  0  0  0  0  0  0  0
   -7.1446   -6.5998    0.0000 O   0  0  0  0  0  0  0  0  0  0  0  0
   -5.0012   -6.1873    0.0000 C   0  0  0  0  0  0  0  0  0  0  0  0
   -4.2867   -6.5998    0.0000 O   0  0  0  0  0  0  0  0  0  0  0  0
   -5.0012    0.5576    0.0000 H   0  0  0  0  0  0  0  0  0  0  0  0
    5.8411   -0.8977    0.0000 H   0  0  0  0  0  0  0  0  0  0  0  0
    0.7144   -3.8719    0.0000 H   0  0  0  0  0  0  0  0  0  0  0  0
    2.8578   -1.4904    0.0000 H   0  0  0  0  0  0  0  0  0  0  0  0
    5.0011   -3.8720    0.0000 H   0  0  0  0  0  0  0  0  0  0  0  0
   -1.4288   -1.4904    0.0000 H   0  0  0  0  0  0  0  0  0  0  0  0
   -3.5723   -3.8718    0.0000 H   0  0  0  0  0  0  0  0  0  0  0  0
   -4.1486   -4.2046    0.0000 H   0  0  0  0  0  0  0  0  0  0  0  0
   -2.9663   -7.0802    0.0000 H   0  0  0  0  0  0  0  0  0  0  0  0
   -7.9561   -6.1313    0.0000 H   0  0  0  0  0  0  0  0  0  0  0  0
   -4.2867   -7.5368    0.0000 H   0  0  0  0  0  0  0  0  0  0  0  0
  2  1  2  0  0  0  0
  3  1  1  0  0  0  0
  5  4  1  0  0  0  0
  5  3  2  0  0  0  0
  6  2  1  0  0  0  0
  6  4  2  0  0  0  0
  7  2  1  0  0  0  0
  8  3  1  0  0  0  0
  9 23  1  6  0  0  0
  9 41  1  0  0  0  0
 10 25  1  1  0  0  0
 10 28  1  0  0  0  0
 11  9  1  0  0  0  0
 12 10  1  0  0  0  0
 13  8  1  0  0  0  0
 14  7  1  0  0  0  0
 15 13  2  0  0  0  0
 16 14  1  0  0  0  0
 17 12  1  0  0  0  0
 17 16  2  0  0  0  0
 18 12  2  0  0  0  0
 19 11  1  0  0  0  0
 20 13  1  0  0  0  0
 20 19  2  0  0  0  0
 21 14  2  0  0  0  0
 21 18  1  0  0  0  0
 22 16  1  0  0  0  0
 23 66  1  0  0  0  0
 24 15  1  0  0  0  0
 25 67  1  0  0  0  0
 26  1  1  0  0  0  0
 27 11  2  0  0  0  0
 27 15  1  0  0  0  0
 28 40  1  1  0  0  0
 29 68  1  0  0  0  0
 30 28  1  0  0  0  0
 31 42  1  0  0  0  0
 32 30  1  0  0  0  0
 32 69  1  0  0  0  0
 33  4  1  1  0  0  0
 33 29  1  0  0  0  0
 33 31  1  0  0  0  0
 34 29  1  0  0  0  0
 35 32  1  0  0  0  0
 35 34  1  0  0  0  0
 35 39  1  1  0  0  0
 36 30  2  0  0  0  0
 37 31  2  0  0  0  0
 38 34  2  0  0  0  0
 40 70  1  0  0  0  0
 41 45  1  0  0  0  0
 41 50  1  6  0  0  0
 42 71  1  0  0  0  0
 43 53  1  6  0  0  0
 43 42  1  0  0  0  0
 43 46  1  0  0  0  0
 44 50  2  0  0  0  0
 45 72  1  0  0  0  0
 46 45  1  0  0  0  0
 46 47  2  0  0  0  0
 48 58  1  0  0  0  0
 48 49  1  0  0  0  0
 49 73  1  0  0  0  0
 50 49  1  0  0  0  0
 52 51  2  0  0  0  0
 53 54  2  0  0  0  0
 54 51  1  0  0  0  0
 55 56  2  0  0  0  0
 55 52  1  0  0  0  0
 56 53  1  0  0  0  0
 57 52  1  0  0  0  0
 57 74  1  0  0  0  0
 58 59  2  0  0  0  0
 58 61  1  0  0  0  0
 59 62  1  0  0  0  0
 60 64  1  0  0  0  0
 61 51  1  0  0  0  0
 62 60  2  0  0  0  0
 62 63  1  0  0  0  0
 63 75  1  0  0  0  0
 64 61  2  0  0  0  0
 64 65  1  0  0  0  0
 65 76  1  0  0  0  0
M  END
$$$$
O[C@H]1[C@H](O)COC[C@@H]1O
 OpenBabel07182308452D

 11 11  0  0  1  0  0  0  0  0999 V2000
   -0.7143    2.8874    0.0000 C   0  0  1  0  0  0  0  0  0  0  0  0
   -0.7144    2.0625    0.0000 C   0  0  0  0  0  0  0  0  0  0  0  0
   -1.4288    3.2999    0.0000 C   0  0  2  0  0  0  0  0  0  0  0  0
   -1.4288    1.6500    0.0000 O   0  0  0  0  0  0  0  0  0  0  0  0
   -2.1433    2.8875    0.0000 C   0  0  1  0  0  0  0  0  0  0  0  0
   -2.1433    2.0625    0.0000 C   0  0  0  0  0  0  0  0  0  0  0  0
    0.0000    3.2999    0.0000 O   0  0  0  0  0  0  0  0  0  0  0  0
   -1.4288    4.1249    0.0000 O   0  0  0  0  0  0  0  0  0  0  0  0
   -2.8578    3.3000    0.0000 O   0  0  0  0  0  0  0  0  0  0  0  0
   -0.5888    4.6099    0.0000 H   0  0  0  0  0  0  0  0  0  0  0  0
   -2.8578    4.2700    0.0000 H   0  0  0  0  0  0  0  0  0  0  0  0
  1  7  1  1  0  0  0
  2  1  1  0  0  0  0
  3  1  1  0  0  0  0
  3  8  1  6  0  0  0
  4  2  1  0  0  0  0
  5  3  1  0  0  0  0
  5  9  1  1  0  0  0
  6  4  1  0  0  0  0
  6  5  1  0  0  0  0
  8 10  1  0  0  0  0
  9 11  1  0  0  0  0
M  END
$$$$
C[C@@H]1OCC[C@]([C@@H]1O)(C)N
 OpenBabel07182308452D

 13 13  0  0  1  0  0  0  0  0999 V2000
    0.7146    5.3623    0.0000 C   0  0  1  0  0  0  0  0  0  0  0  0
    0.0001    4.1249    0.0000 C   0  0  0  0  0  0  0  0  0  0  0  0
    0.7145    4.5374    0.0000 C   0  0  0  0  0  0  0  0  0  0  0  0
   -0.7143    4.5374    0.0000 O   0  0  0  0  0  0  0  0  0  0  0  0
    0.0001    5.7748    0.0000 C   0  0  1  0  0  0  0  0  0  0  0  0
   -0.7143    5.3624    0.0000 C   0  0  2  0  0  0  0  0  0  0  0  0
    1.5395    5.3623    0.0000 N   0  0  0  0  0  0  0  0  0  0  0  0
    0.0001    6.5998    0.0000 O   0  0  0  0  0  0  0  0  0  0  0  0
    1.1271    6.0768    0.0000 C   0  0  0  0  0  0  0  0  0  0  0  0
   -1.4288    5.7749    0.0000 C   0  0  0  0  0  0  0  0  0  0  0  0
    2.0495    4.4790    0.0000 H   0  0  0  0  0  0  0  0  0  0  0  0
    2.0495    6.2456    0.0000 H   0  0  0  0  0  0  0  0  0  0  0  0
    0.8401    7.0848    0.0000 H   0  0  0  0  0  0  0  0  0  0  0  0
  1  7  1  0  0  0  0
  1  9  1  6  0  0  0
  3  1  1  0  0  0  0
  3  2  1  0  0  0  0
  4  2  1  0  0  0  0
  5  1  1  1  0  0  0
  5  8  1  0  0  0  0
  6  4  1  0  0  0  0
  6  5  1  0  0  0  0
  6 10  1  1  0  0  0
  7 11  1  0  0  0  0
  7 12  1  0  0  0  0
  8 13  1  0  0  0  0
M  END
$$$$
CN1CC[C@]23[C@@H]([C@@H]1Cc1c3cccc1)CCCC2
 OpenBabel07182308452D

 19 22  0  0  0  0  0  0  0  0999 V2000
    0.8375   -0.7122    0.0000 C   0  0  2  0  0  0  0  0  0  0  0  0
    0.0215   -0.7194    0.0000 C   0  0  0  0  0  0  0  0  0  0  0  0
    1.1920   -0.0537    0.0000 C   0  0  1  0  0  0  0  0  0  0  0  0
    1.7540   -0.4044    0.0000 C   0  0  0  0  0  0  0  0  0  0  0  0
    1.1740   -1.4747    0.0000 C   0  0  0  0  0  0  0  0  0  0  0  0
   -0.3937   -0.0715    0.0000 C   0  0  0  0  0  0  0  0  0  0  0  0
   -0.3937   -1.4460    0.0000 C   0  0  0  0  0  0  0  0  0  0  0  0
    0.8126    0.6586    0.0000 C   0  0  2  0  0  0  0  0  0  0  0  0
    2.0403   -0.0537    0.0000 C   0  0  0  0  0  0  0  0  0  0  0  0
    1.7540    0.9843    0.0000 C   0  0  0  0  0  0  0  0  0  0  0  0
    2.0546   -1.4747    0.0000 C   0  0  0  0  0  0  0  0  0  0  0  0
    0.0071    0.6442    0.0000 C   0  0  0  0  0  0  0  0  0  0  0  0
   -1.1812   -0.0715    0.0000 C   0  0  0  0  0  0  0  0  0  0  0  0
   -1.2312   -1.4604    0.0000 C   0  0  0  0  0  0  0  0  0  0  0  0
    0.8912    1.3781    0.0000 N   0  0  0  0  0  0  0  0  0  0  0  0
    2.4913   -0.7445    0.0000 C   0  0  0  0  0  0  0  0  0  0  0  0
   -1.6393   -0.7445    0.0000 C   0  0  0  0  0  0  0  0  0  0  0  0
    0.6156    2.1834    0.0000 C   0  0  0  0  0  0  0  0  0  0  0  0
    0.4009   -0.0501    0.0000 H   0  0  0  0  0  0  0  0  0  0  0  0
  1  2  1  0  0  0  0
  1  3  1  1  0  0  0
  1  4  1  0  0  0  0
  1  5  1  0  0  0  0
  2  6  2  0  0  0  0
  2  7  1  0  0  0  0
  3  9  1  0  0  0  0
  3 19  1  6  0  0  0
  4 10  1  0  0  0  0
  5 11  1  0  0  0  0
  6 12  1  0  0  0  0
  6 13  1  0  0  0  0
  7 14  2  0  0  0  0
  8  3  1  6  0  0  0
  8 15  1  0  0  0  0
  8 12  1  0  0  0  0
  9 16  1  0  0  0  0
 10 15  1  0  0  0  0
 11 16  1  0  0  0  0
 13 17  2  0  0  0  0
 14 17  1  0  0  0  0
 15 18  1  0  0  0  0
M  END
$$$$
N[Pt](Cl)(Cl)N
 OpenBabel07182308452D

 13 12  0  0  0  0  0  0  0  0999 V2000
    0.9818    0.5834    0.0000 Cl  0  0  0  0  0  0  0  0  0  0  0  0
    0.9818   -0.5834    0.0000 Cl  0  0  0  0  0  0  0  0  0  0  0  0
    0.3984    0.0000    0.0000 Pt  0  0  0  0  0  0  0  0  0  0  0  0
    0.0286    1.3803    0.0000 H   0  0  0  0  0  0  0  0  0  0  0  0
   -0.9818   -0.3699    0.0000 H   0  0  0  0  0  0  0  0  0  0  0  0
   -0.9818    0.3698    0.0000 H   0  0  0  0  0  0  0  0  0  0  0  0
    0.0285   -1.3803    0.0000 H   0  0  0  0  0  0  0  0  0  0  0  0
   -0.1849   -0.5834    0.0000 N   0  0  0  0  0  0  0  0  0  0  0  0
   -0.3984   -1.3803    0.0000 H   0  0  0  0  0  0  0  0  0  0  0  0
   -0.1849    0.5834    0.0000 N   0  0  0  0  0  0  0  0  0  0  0  0
   -0.9818    0.7969    0.0000 H   0  0  0  0  0  0  0  0  0  0  0  0
    0.2990    0.3145    0.0000 H   0  0  0  0  0  0  0  0  0  0  0  0
   -0.8311   -0.2058    0.0000 H   0  0  0  0  0  0  0  0  0  0  0  0
  3  1  1  0  0  0  0
  3  2  1  0  0  0  0
  3  8  1  0  0  0  0
  3 10  1  0  0  0  0
  8  5  1  0  0  0  0
  8  7  1  0  0  0  0
  8  9  1  0  0  0  0
  8 12  1  0  0  0  0
 10  6  1  0  0  0  0
 10  4  1  0  0  0  0
 10 11  1  0  0  0  0
 10 13  1  0  0  0  0
M  END
$$$$
O[C@@H]1CC2CCC(C1)[N+]2(C)C
 OpenBabel07182308452D

 11 12  0  0  1  0  0  0  0  0999 V2000
   -0.7145    0.4125    0.0000 O   0  0  0  0  0  0  0  0  0  0  0  0
   -2.0738   -1.3395    0.0000 C   0  0  3  0  0  0  0  0  0  0  0  0
   -1.4289   -0.8250    0.0000 C   0  0  0  0  0  0  0  0  0  0  0  0
   -2.8783    0.3307    0.0000 C   0  0  3  0  0  0  0  0  0  0  0  0
   -2.0740    0.5143    0.0000 C   0  0  0  0  0  0  0  0  0  0  0  0
   -1.4289    0.0000    0.0000 C   0  0  2  0  0  0  0  0  0  0  0  0
   -1.9509   -0.1194    0.0000 N   0  3  0  0  0  0  0  0  0  0  0  0
   -3.2908   -0.3838    0.0000 C   0  0  0  0  0  0  0  0  0  0  0  0
   -2.8707   -1.1260    0.0000 C   0  0  0  0  0  0  0  0  0  0  0  0
   -1.7374    0.6774    0.0000 C   0  0  0  0  0  0  0  0  0  0  0  0
   -1.1540   -0.3330    0.0000 C   0  0  0  0  0  0  0  0  0  0  0  0
  2  7  1  0  0  0  0
  2  9  1  0  0  0  0
  3  2  1  0  0  0  0
  4  7  1  0  0  0  0
  4  8  1  0  0  0  0
  5  4  1  0  0  0  0
  5  6  1  0  0  0  0
  6  1  1  6  0  0  0
  6  3  1  0  0  0  0
  7 10  1  0  0  0  0
  7 11  1  0  0  0  0
  9  8  1  0  0  0  0
M  CHG  1   7   1
M  END
$$$$
Sc1ccc2c(c1)[nH]c(n2)N
 OpenBabel07182308452D

 13 14  0  0  0  0  0  0  0  0999 V2000
    3.7935    0.9644    0.0000 S   0  0  0  0  0  0  0  0  0  0  0  0
    6.7176    0.8033    0.0000 N   0  0  0  0  0  0  0  0  0  0  0  0
    6.7176   -0.5245    0.0000 N   0  0  0  0  0  0  0  0  0  0  0  0
    8.0241    0.1394    0.0000 N   0  0  0  0  0  0  0  0  0  0  0  0
    5.9370    0.5519    0.0000 C   0  0  0  0  0  0  0  0  0  0  0  0
    5.9370   -0.2731    0.0000 C   0  0  0  0  0  0  0  0  0  0  0  0
    4.5080    0.5519    0.0000 C   0  0  0  0  0  0  0  0  0  0  0  0
    5.2224    0.9644    0.0000 C   0  0  0  0  0  0  0  0  0  0  0  0
    5.2224   -0.6856    0.0000 C   0  0  0  0  0  0  0  0  0  0  0  0
    7.1991    0.1394    0.0000 C   0  0  0  0  0  0  0  0  0  0  0  0
    4.5080   -0.2731    0.0000 C   0  0  0  0  0  0  0  0  0  0  0  0
    7.0234    1.7391    0.0000 H   0  0  0  0  0  0  0  0  0  0  0  0
    8.5163    0.9920    0.0000 H   0  0  0  0  0  0  0  0  0  0  0  0
  1  7  1  0  0  0  0
  2  5  1  0  0  0  0
  2 10  1  0  0  0  0
  2 12  1  0  0  0  0
  3  6  1  0  0  0  0
  3 10  2  0  0  0  0
  4 10  1  0  0  0  0
  4 13  1  0  0  0  0
  5  6  2  0  0  0  0
  5  8  1  0  0  0  0
  6  9  1  0  0  0  0
  7  8  2  0  0  0  0
  7 11  1  0  0  0  0
  9 11  2  0  0  0  0
M  END
$$$$
C1CC[C@H]2[C@H](C1)NCC2
 OpenBabel07182308452D

 11 12  0  0  1  0  0  0  0  0999 V2000
    6.0195   -2.0521    0.0000 N   0  0  0  0  0  0  0  0  0  0  0  0
    5.2389   -3.1285    0.0000 C   0  0  1  0  0  0  0  0  0  0  0  0
    5.2389   -2.3035    0.0000 C   0  0  2  0  0  0  0  0  0  0  0  0
    6.0195   -3.3799    0.0000 C   0  0  0  0  0  0  0  0  0  0  0  0
    6.5010   -2.7160    0.0000 C   0  0  0  0  0  0  0  0  0  0  0  0
    4.5244   -3.5410    0.0000 C   0  0  0  0  0  0  0  0  0  0  0  0
    4.5244   -1.8909    0.0000 C   0  0  0  0  0  0  0  0  0  0  0  0
    3.8099   -3.1285    0.0000 C   0  0  0  0  0  0  0  0  0  0  0  0
    3.8099   -2.3035    0.0000 C   0  0  0  0  0  0  0  0  0  0  0  0
    5.3087   -3.7848    0.0000 H   0  0  0  0  0  0  0  0  0  0  0  0
    5.3087   -1.6471    0.0000 H   0  0  0  0  0  0  0  0  0  0  0  0
  1  3  1  0  0  0  0
  1  5  1  0  0  0  0
  2  3  1  6  0  0  0
  2  4  1  0  0  0  0
  2  6  1  0  0  0  0
  2 10  1  0  0  0  0
  3  7  1  0  0  0  0
  3 11  1  1  0  0  0
  4  5  1  0  0  0  0
  6  8  1  0  0  0  0
  7  9  1  0  0  0  0
  8  9  1  0  0  0  0
M  END
$$$$
O[C@H]1CN2[C@@H](C1)C(=O)NCC(=O)NCC(=O)N1CC[C@@H]([C@H]1C(=O)N[C@@H]([C@@H](C[C@@H](C(=O)NCC2=O)N)O)N)O
 OpenBabel07182308452D

 49 51  0  0  0  0  0  0  0  0999 V2000
   -0.8512   -1.6890    0.0000 C   0  0  1  0  0  0  0  0  0  0  0  0
   -0.3661   -1.0217    0.0000 N   0  0  0  0  0  0  0  0  0  0  0  0
   -0.3662   -2.3567    0.0000 C   0  0  0  0  0  0  0  0  0  0  0  0
    0.4185   -1.2767    0.0000 C   0  0  0  0  0  0  0  0  0  0  0  0
    0.4185   -2.1018    0.0000 C   0  0  2  0  0  0  0  0  0  0  0  0
   -0.3661    0.4073    0.0000 C   0  0  0  0  0  0  0  0  0  0  0  0
   -0.7786   -0.3072    0.0000 C   0  0  0  0  0  0  0  0  0  0  0  0
    0.4588    1.8362    0.0000 O   0  0  0  0  0  0  0  0  0  0  0  0
   -0.3661    1.8362    0.0000 C   0  0  0  0  0  0  0  0  0  0  0  0
   -0.7786    1.1217    0.0000 N   0  0  0  0  0  0  0  0  0  0  0  0
   -0.3661    3.2653    0.0000 C   0  0  0  0  0  0  0  0  0  0  0  0
   -0.7786    2.5508    0.0000 C   0  0  2  0  0  0  0  0  0  0  0  0
   -0.7786    3.9797    0.0000 C   0  0  2  0  0  0  0  0  0  0  0  0
   -1.6022    3.9807    0.0000 C   0  0  1  0  0  0  0  0  0  0  0  0
   -2.0140    4.6958    0.0000 N   0  0  0  0  0  0  0  0  0  0  0  0
   -2.0156    3.2668    0.0000 N   0  0  0  0  0  0  0  0  0  0  0  0
   -0.3656    4.6940    0.0000 O   0  0  0  0  0  0  0  0  0  0  0  0
   -2.8407    3.2677    0.0000 C   0  0  0  0  0  0  0  0  0  0  0  0
   -3.2540    2.5537    0.0000 C   0  0  1  0  0  0  0  0  0  0  0  0
   -3.2523    3.9827    0.0000 O   0  0  0  0  0  0  0  0  0  0  0  0
   -3.2523    1.7244    0.0000 N   0  0  0  0  0  0  0  0  0  0  0  0
   -4.5238    2.1414    0.0000 C   0  0  0  0  0  0  0  0  0  0  0  0
   -4.0387    2.8089    0.0000 C   0  0  2  0  0  0  0  0  0  0  0  0
   -4.0388    1.4739    0.0000 C   0  0  0  0  0  0  0  0  0  0  0  0
   -2.8398    1.0098    0.0000 C   0  0  0  0  0  0  0  0  0  0  0  0
   -3.2523    0.2954    0.0000 C   0  0  0  0  0  0  0  0  0  0  0  0
   -2.0148    1.0098    0.0000 O   0  0  0  0  0  0  0  0  0  0  0  0
   -2.8398   -0.4192    0.0000 N   0  0  0  0  0  0  0  0  0  0  0  0
   -3.2524   -1.1336    0.0000 C   0  0  0  0  0  0  0  0  0  0  0  0
   -4.0773   -1.1383    0.0000 O   0  0  0  0  0  0  0  0  0  0  0  0
   -2.8378   -1.8469    0.0000 C   0  0  0  0  0  0  0  0  0  0  0  0
   -2.2224   -1.4329    0.0000 N   0  0  0  0  0  0  0  0  0  0  0  0
   -1.5064   -1.8429    0.0000 C   0  0  0  0  0  0  0  0  0  0  0  0
   -1.5034   -2.6679    0.0000 O   0  0  0  0  0  0  0  0  0  0  0  0
   -4.2935    3.5935    0.0000 O   0  0  0  0  0  0  0  0  0  0  0  0
    0.0180    2.7581    0.0000 N   0  0  0  0  0  0  0  0  0  0  0  0
    1.0859   -2.5868    0.0000 O   0  0  0  0  0  0  0  0  0  0  0  0
   -1.6036   -0.3072    0.0000 O   0  0  0  0  0  0  0  0  0  0  0  0
   -1.4332   -1.0986    0.0000 H   0  0  0  0  0  0  0  0  0  0  0  0
   -1.6022    2.5495    0.0000 H   0  0  0  0  0  0  0  0  0  0  0  0
   -1.7631    1.1217    0.0000 H   0  0  0  0  0  0  0  0  0  0  0  0
   -1.5032    5.5787    0.0000 H   0  0  0  0  0  0  0  0  0  0  0  0
   -1.5244    2.4136    0.0000 H   0  0  0  0  0  0  0  0  0  0  0  0
    0.6044    4.6934    0.0000 H   0  0  0  0  0  0  0  0  0  0  0  0
   -1.8553   -0.4193    0.0000 H   0  0  0  0  0  0  0  0  0  0  0  0
   -2.2579   -0.4490    0.0000 H   0  0  0  0  0  0  0  0  0  0  0  0
   -3.6443    4.3143    0.0000 H   0  0  0  0  0  0  0  0  0  0  0  0
    0.3936    1.8481    0.0000 H   0  0  0  0  0  0  0  0  0  0  0  0
    0.9844   -3.5515    0.0000 H   0  0  0  0  0  0  0  0  0  0  0  0
  1 33  1  0  0  0  0
  1 39  1  6  0  0  0
  2  1  1  0  0  0  0
  3  1  1  0  0  0  0
  4  2  1  0  0  0  0
  5  3  1  0  0  0  0
  5  4  1  0  0  0  0
  5 37  1  6  0  0  0
  6  7  1  0  0  0  0
  6 10  1  0  0  0  0
  7  2  1  0  0  0  0
  7 38  2  0  0  0  0
  9  8  2  0  0  0  0
 10  9  1  0  0  0  0
 10 41  1  0  0  0  0
 11 13  1  0  0  0  0
 12  9  1  0  0  0  0
 12 11  1  0  0  0  0
 12 36  1  0  0  0  0
 12 40  1  1  0  0  0
 13 14  1  0  0  0  0
 13 17  1  6  0  0  0
 14 15  1  6  0  0  0
 14 16  1  0  0  0  0
 15 42  1  0  0  0  0
 16 18  1  0  0  0  0
 16 43  1  0  0  0  0
 17 44  1  0  0  0  0
 18 20  2  0  0  0  0
 19 18  1  1  0  0  0
 19 23  1  0  0  0  0
 21 24  1  0  0  0  0
 21 19  1  0  0  0  0
 21 25  1  0  0  0  0
 23 22  1  0  0  0  0
 23 35  1  6  0  0  0
 24 22  1  0  0  0  0
 25 27  2  0  0  0  0
 26 25  1  0  0  0  0
 26 28  1  0  0  0  0
 28 29  1  0  0  0  0
 28 45  1  0  0  0  0
 29 30  2  0  0  0  0
 31 29  1  0  0  0  0
 32 33  1  0  0  0  0
 32 31  1  0  0  0  0
 32 46  1  0  0  0  0
 33 34  2  0  0  0  0
 35 47  1  0  0  0  0
 36 48  1  0  0  0  0
 37 49  1  0  0  0  0
M  END
$$$$
O=C1CCc2c(N1)cccc2
 OpenBabel07182308452D

 12 13  0  0  1  0  0  0  0  0999 V2000
    1.6500    2.8069    0.0000 O   0  0  0  0  0  0  0  0  0  0  0  0
    3.0790    2.8069    0.0000 N   0  0  0  0  0  0  0  0  0  0  0  0
    3.7934    1.5694    0.0000 C   0  0  0  0  0  0  0  0  0  0  0  0
    3.0790    1.1569    0.0000 C   0  0  0  0  0  0  0  0  0  0  0  0
    4.5309    1.1283    0.0000 C   0  0  0  0  0  0  0  0  0  0  0  0
    3.7934    2.3944    0.0000 C   0  0  0  0  0  0  0  0  0  0  0  0
    2.3645    1.5694    0.0000 C   0  0  0  0  0  0  0  0  0  0  0  0
    2.3645    2.3944    0.0000 C   0  0  0  0  0  0  0  0  0  0  0  0
    5.2784    1.5522    0.0000 C   0  0  0  0  0  0  0  0  0  0  0  0
    4.5309    2.8355    0.0000 C   0  0  0  0  0  0  0  0  0  0  0  0
    5.2784    2.4116    0.0000 C   0  0  0  0  0  0  0  0  0  0  0  0
    3.0790    3.7914    0.0000 H   0  0  0  0  0  0  0  0  0  0  0  0
  1  8  2  0  0  0  0
  2  6  1  0  0  0  0
  2  8  1  0  0  0  0
  2 12  1  0  0  0  0
  3  4  1  0  0  0  0
  3  5  1  0  0  0  0
  3  6  2  0  0  0  0
  4  7  1  0  0  0  0
  5  9  2  0  0  0  0
  6 10  1  0  0  0  0
  7  8  1  0  0  0  0
  9 11  1  0  0  0  0
 10 11  2  0  0  0  0
M  END
$$$$
CC1Nc2cc(Cl)ccc2C(=O)N1
 OpenBabel07182308452D

 14 15  0  0  1  0  0  0  0  0999 V2000
    7.4202    1.2079    0.0000 Cl  0  0  0  0  0  0  0  0  0  0  0  0
    4.5079   -1.2870    0.0000 O   0  0  0  0  0  0  0  0  0  0  0  0
    3.7934   -0.0495    0.0000 N   0  0  0  0  0  0  0  0  0  0  0  0
    4.5079    1.1880    0.0000 N   0  0  0  0  0  0  0  0  0  0  0  0
    3.7934    0.7755    0.0000 C   0  0  3  0  0  0  0  0  0  0  0  0
    5.2223    0.7755    0.0000 C   0  0  0  0  0  0  0  0  0  0  0  0
    5.2223   -0.0495    0.0000 C   0  0  0  0  0  0  0  0  0  0  0  0
    4.5079   -0.4620    0.0000 C   0  0  0  0  0  0  0  0  0  0  0  0
    3.0790    1.1880    0.0000 C   0  0  0  0  0  0  0  0  0  0  0  0
    5.9599   -0.4906    0.0000 C   0  0  0  0  0  0  0  0  0  0  0  0
    5.9599    1.2166    0.0000 C   0  0  0  0  0  0  0  0  0  0  0  0
    6.7073   -0.0667    0.0000 C   0  0  0  0  0  0  0  0  0  0  0  0
    6.7073    0.7927    0.0000 C   0  0  0  0  0  0  0  0  0  0  0  0
    4.5079    2.1725    0.0000 H   0  0  0  0  0  0  0  0  0  0  0  0
  1 13  1  0  0  0  0
  2  8  2  0  0  0  0
  3  5  1  0  0  0  0
  3  8  1  0  0  0  0
  4  5  1  0  0  0  0
  4  6  1  0  0  0  0
  4 14  1  0  0  0  0
  5  9  1  0  0  0  0
  6  7  1  0  0  0  0
  6 11  2  0  0  0  0
  7  8  1  0  0  0  0
  7 10  2  0  0  0  0
 10 12  1  0  0  0  0
 11 13  1  0  0  0  0
 12 13  2  0  0  0  0
M  END
$$$$
C=S
 OpenBabel07182308452D

  2  1  0  0  0  0  0  0  0  0999 V2000
    5.2224    0.8107    0.0000 S   0  0  0  0  0  0  0  0  0  0  0  0
    5.2224   -0.0143    0.0000 C   0  0  0  0  0  0  0  0  0  0  0  0
  1  2  2  0  0  0  0
M  END
$$$$
Oc1ccc2c(c1)cccc2
 OpenBabel07182308452D

 11 12  0  0  0  0  0  0  0  0999 V2000
    5.9370   -0.4268    0.0000 O   0  0  0  0  0  0  0  0  0  0  0  0
    8.0804   -0.0143    0.0000 C   0  0  0  0  0  0  0  0  0  0  0  0
    8.0804    0.8107    0.0000 C   0  0  0  0  0  0  0  0  0  0  0  0
    6.6515   -0.0143    0.0000 C   0  0  0  0  0  0  0  0  0  0  0  0
    7.3659   -0.4268    0.0000 C   0  0  0  0  0  0  0  0  0  0  0  0
    7.3659    1.2233    0.0000 C   0  0  0  0  0  0  0  0  0  0  0  0
    6.6515    0.8107    0.0000 C   0  0  0  0  0  0  0  0  0  0  0  0
    8.8180   -0.4554    0.0000 C   0  0  0  0  0  0  0  0  0  0  0  0
    8.8180    1.2518    0.0000 C   0  0  0  0  0  0  0  0  0  0  0  0
    9.5654   -0.0314    0.0000 C   0  0  0  0  0  0  0  0  0  0  0  0
    9.5654    0.8279    0.0000 C   0  0  0  0  0  0  0  0  0  0  0  0
  1  4  1  0  0  0  0
  2  3  1  0  0  0  0
  2  5  1  0  0  0  0
  2  8  2  0  0  0  0
  3  6  1  0  0  0  0
  3  9  2  0  0  0  0
  4  5  2  0  0  0  0
  4  7  1  0  0  0  0
  6  7  2  0  0  0  0
  8 10  1  0  0  0  0
  9 11  1  0  0  0  0
 10 11  2  0  0  0  0
M  END
$$$$
O=C1O[Pt]2(OC1=O)N[C@H]1[C@H](N2)CCCC1
 OpenBabel07182308452D

 21 23  0  0  0  0  0  0  0  0999 V2000
    1.7869   -0.8250    0.0000 C   0  0  0  0  0  0  0  0  0  0  0  0
    1.7869    0.8250    0.0000 C   0  0  0  0  0  0  0  0  0  0  0  0
    2.5013    0.4125    0.0000 C   0  0  0  0  0  0  0  0  0  0  0  0
    2.5013   -0.4125    0.0000 C   0  0  0  0  0  0  0  0  0  0  0  0
    1.0724    0.4125    0.0000 C   0  0  2  0  0  0  0  0  0  0  0  0
    1.0724   -0.4125    0.0000 C   0  0  2  0  0  0  0  0  0  0  0  0
    0.2760   -1.4924    0.0000 H   0  0  0  0  0  0  0  0  0  0  0  0
    0.2878   -0.6674    0.0000 N   0  0  0  0  0  0  0  0  0  0  0  0
   -0.1876   -1.3416    0.0000 H   0  0  0  0  0  0  0  0  0  0  0  0
   -0.1876    1.3416    0.0000 H   0  0  0  0  0  0  0  0  0  0  0  0
    0.2878    0.6674    0.0000 N   0  0  0  0  0  0  0  0  0  0  0  0
    0.2760    1.4924    0.0000 H   0  0  0  0  0  0  0  0  0  0  0  0
   -1.7870    0.4124    0.0000 C   0  0  0  0  0  0  0  0  0  0  0  0
   -1.7870   -0.4125    0.0000 C   0  0  0  0  0  0  0  0  0  0  0  0
   -0.3573    0.0000    0.0000 Pt  0  0  0  0  0  0  0  0  0  0  0  0
   -1.0024    0.6673    0.0000 O   0  0  0  0  0  0  0  0  0  0  0  0
   -1.0024   -0.6674    0.0000 O   0  0  0  0  0  0  0  0  0  0  0  0
   -2.5014   -0.8250    0.0000 O   0  0  0  0  0  0  0  0  0  0  0  0
   -2.5014    0.8249    0.0000 O   0  0  0  0  0  0  0  0  0  0  0  0
    1.2910   -0.4832    0.0000 H   0  0  0  0  0  0  0  0  0  0  0  0
    0.6460    1.6224    0.0000 H   0  0  0  0  0  0  0  0  0  0  0  0
  1  4  1  0  0  0  0
  2  3  1  0  0  0  0
  3  4  1  0  0  0  0
  5  2  1  6  0  0  0
  5 11  1  0  0  0  0
  5  6  1  0  0  0  0
  6  1  1  1  0  0  0
  6  8  1  0  0  0  0
  8 15  1  0  0  0  0
  8  7  1  0  0  0  0
  8  9  1  0  0  0  0
  8 20  1  0  0  0  0
 11 10  1  0  0  0  0
 11 12  1  0  0  0  0
 11 21  1  0  0  0  0
 13 19  2  0  0  0  0
 13 16  1  0  0  0  0
 13 14  1  0  0  0  0
 14 17  1  0  0  0  0
 15 11  1  0  0  0  0
 15 16  1  0  0  0  0
 17 15  1  0  0  0  0
 18 14  2  0  0  0  0
M  END
$$$$
Oc1ccc2c(n1)cccc2
 OpenBabel07182308452D

 11 12  0  0  0  0  0  0  0  0999 V2000
    0.3837   -1.4453    0.0000 O   0  0  0  0  0  0  0  0  0  0  0  0
   -1.0424   -1.4516    0.0000 N   0  0  0  0  0  0  0  0  0  0  0  0
   -1.7651   -0.2110    0.0000 C   0  0  0  0  0  0  0  0  0  0  0  0
   -1.0424    0.2046    0.0000 C   0  0  0  0  0  0  0  0  0  0  0  0
   -1.7651   -1.0360    0.0000 C   0  0  0  0  0  0  0  0  0  0  0  0
   -0.3261   -1.0360    0.0000 C   0  0  0  0  0  0  0  0  0  0  0  0
   -0.3261   -0.2110    0.0000 C   0  0  0  0  0  0  0  0  0  0  0  0
   -2.4814    0.2046    0.0000 C   0  0  0  0  0  0  0  0  0  0  0  0
   -2.4814   -1.4516    0.0000 C   0  0  0  0  0  0  0  0  0  0  0  0
   -3.1976   -0.2110    0.0000 C   0  0  0  0  0  0  0  0  0  0  0  0
   -3.1976   -1.0360    0.0000 C   0  0  0  0  0  0  0  0  0  0  0  0
  1  6  1  0  0  0  0
  2  5  1  0  0  0  0
  2  6  2  0  0  0  0
  3  4  1  0  0  0  0
  3  5  1  0  0  0  0
  3  8  2  0  0  0  0
  4  7  2  0  0  0  0
  5  9  2  0  0  0  0
  6  7  1  0  0  0  0
  8 10  1  0  0  0  0
  9 11  1  0  0  0  0
 10 11  2  0  0  0  0
M  END
$$$$
C#Cc1ccccc1
 OpenBabel07182308452D

  8  8  0  0  0  0  0  0  0  0999 V2000
    1.7836    0.0024    0.0000 C   0  0  0  0  0  0  0  0  0  0  0  0
    1.7800    0.8278    0.0000 C   0  0  0  0  0  0  0  0  0  0  0  0
    1.0630    1.2328    0.0000 C   0  0  0  0  0  0  0  0  0  0  0  0
    0.3537    0.8188    0.0000 C   0  0  0  0  0  0  0  0  0  0  0  0
    0.3571   -0.0101    0.0000 C   0  0  0  0  0  0  0  0  0  0  0  0
    1.0748   -0.4157    0.0000 C   0  0  0  0  0  0  0  0  0  0  0  0
    1.0561    2.0638    0.0000 C   0  0  0  0  0  0  0  0  0  0  0  0
    1.0561    2.8912    0.0000 C   0  0  0  0  0  0  0  0  0  0  0  0
  1  2  2  0  0  0  0
  2  3  1  0  0  0  0
  3  4  2  0  0  0  0
  3  7  1  0  0  0  0
  4  5  1  0  0  0  0
  5  6  2  0  0  0  0
  6  1  1  0  0  0  0
  7  8  3  0  0  0  0
M  END
$$$$
Oc1cc2c(cc1O)ncnc2N
 OpenBabel07182308452D

 14 15  0  0  0  0  0  0  0  0999 V2000
    1.7948   -1.6523    0.0000 C   0  0  0  0  0  0  0  0  0  0  0  0
    1.7886   -2.4776    0.0000 C   0  0  0  0  0  0  0  0  0  0  0  0
    2.5009   -2.8912    0.0000 N   0  0  0  0  0  0  0  0  0  0  0  0
    3.2199   -2.4855    0.0000 C   0  0  0  0  0  0  0  0  0  0  0  0
    3.2214   -1.6565    0.0000 N   0  0  0  0  0  0  0  0  0  0  0  0
    2.5085   -1.2424    0.0000 C   0  0  0  0  0  0  0  0  0  0  0  0
    0.3698   -2.4698    0.0000 C   0  0  0  0  0  0  0  0  0  0  0  0
    1.0836   -2.8861    0.0000 C   0  0  0  0  0  0  0  0  0  0  0  0
    1.0796   -1.2417    0.0000 C   0  0  0  0  0  0  0  0  0  0  0  0
    0.3692   -1.6516    0.0000 C   0  0  0  0  0  0  0  0  0  0  0  0
    2.5030   -0.4185    0.0000 N   0  0  0  0  0  0  0  0  0  0  0  0
   -0.3470   -1.2362    0.0000 O   0  0  0  0  0  0  0  0  0  0  0  0
   -0.3470   -2.8765    0.0000 O   0  0  0  0  0  0  0  0  0  0  0  0
    3.3554    0.0741    0.0000 H   0  0  0  0  0  0  0  0  0  0  0  0
  1  9  1  0  0  0  0
  1  2  2  0  0  0  0
  2  3  1  0  0  0  0
  3  4  2  0  0  0  0
  4  5  1  0  0  0  0
  5  6  2  0  0  0  0
  6 11  1  0  0  0  0
  6  1  1  0  0  0  0
  7 13  1  0  0  0  0
  7  8  2  0  0  0  0
  8  2  1  0  0  0  0
  9 10  2  0  0  0  0
 10  7  1  0  0  0  0
 10 12  1  0  0  0  0
 11 14  1  0  0  0  0
M  END
$$$$
NP1(=O)NCCCO1
 OpenBabel07182308452D

  9  9  0  0  1  0  0  0  0  0999 V2000
    4.1251    0.6040    0.0000 P   0  0  3  0  0  0  0  0  0  0  0  0
    4.8396    1.0165    0.0000 O   0  0  0  0  0  0  0  0  0  0  0  0
    4.5376   -0.1106    0.0000 O   0  0  0  0  0  0  0  0  0  0  0  0
    3.7126   -0.1106    0.0000 N   0  0  0  0  0  0  0  0  0  0  0  0
    3.4106    1.0165    0.0000 N   0  0  0  0  0  0  0  0  0  0  0  0
    3.4106    1.8415    0.0000 C   0  0  0  0  0  0  0  0  0  0  0  0
    4.1251    2.2540    0.0000 C   0  0  0  0  0  0  0  0  0  0  0  0
    4.8396    1.8415    0.0000 C   0  0  0  0  0  0  0  0  0  0  0  0
    2.5273    0.5065    0.0000 H   0  0  0  0  0  0  0  0  0  0  0  0
  1  2  1  0  0  0  0
  1  3  2  0  0  0  0
  1  4  1  0  0  0  0
  1  5  1  0  0  0  0
  2  8  1  0  0  0  0
  5  6  1  0  0  0  0
  5  9  1  0  0  0  0
  6  7  1  0  0  0  0
  7  8  1  0  0  0  0
M  END
$$$$
CN1C(=O)CNC1=O
 OpenBabel07182308452D

  9  9  0  0  1  0  0  0  0  0999 V2000
    2.0082    1.2299    0.0000 O   0  0  0  0  0  0  0  0  0  0  0  0
    4.9124    1.2299    0.0000 O   0  0  0  0  0  0  0  0  0  0  0  0
    3.8728    0.1902    0.0000 N   0  0  0  0  0  0  0  0  0  0  0  0
    3.4603    1.4598    0.0000 N   0  0  0  0  0  0  0  0  0  0  0  0
    3.0478    0.1902    0.0000 C   0  0  0  0  0  0  0  0  0  0  0  0
    2.7929    0.9748    0.0000 C   0  0  0  0  0  0  0  0  0  0  0  0
    4.1277    0.9748    0.0000 C   0  0  0  0  0  0  0  0  0  0  0  0
    3.4603    2.2848    0.0000 C   0  0  0  0  0  0  0  0  0  0  0  0
    4.4515   -0.6063    0.0000 H   0  0  0  0  0  0  0  0  0  0  0  0
  1  6  2  0  0  0  0
  2  7  2  0  0  0  0
  3  5  1  0  0  0  0
  3  7  1  0  0  0  0
  3  9  1  0  0  0  0
  4  6  1  0  0  0  0
  4  7  1  0  0  0  0
  4  8  1  0  0  0  0
  5  6  1  0  0  0  0
M  END
$$$$
C[Hg]Cl
 OpenBabel07182308452D

  3  2  0  0  1  0  0  0  0  0999 V2000
    3.1019    0.8631    0.0000 Hg  0  0  0  0  0  0  0  0  0  0  0  0
    2.7440    1.6063    0.0000 Cl  0  0  0  0  0  0  0  0  0  0  0  0
    3.9268    0.8631    0.0000 C   0  0  0  0  0  0  0  0  0  0  0  0
  1  2  1  0  0  0  0
  1  3  1  0  0  0  0
M  END
$$$$
O[C@@H]1CC2C=CCN3[C@@H]2[C@@]2([C@H]1Nc1c2cccc1)CC3
 OpenBabel07182308452D

 23 27  0  0  0  0  0  0  0  0999 V2000
    2.3274   -0.5318    0.0000 C   0  0  1  0  0  0  0  0  0  0  0  0
    2.3063   -1.9607    0.0000 C   0  0  1  0  0  0  0  0  0  0  0  0
    1.9003   -1.2472    0.0000 C   0  0  2  0  0  0  0  0  0  0  0  0
    1.0758   -1.2392    0.0000 N   0  0  0  0  0  0  0  0  0  0  0  0
    3.5523   -1.2518    0.0000 C   0  0  3  0  0  0  0  0  0  0  0  0
    3.1463   -0.5383    0.0000 C   0  0  2  0  0  0  0  0  0  0  0  0
    0.6783   -0.5158    0.0000 C   0  0  0  0  0  0  0  0  0  0  0  0
    3.1274   -1.9709    0.0000 C   0  0  0  0  0  0  0  0  0  0  0  0
    1.0983    0.1955    0.0000 C   0  0  0  0  0  0  0  0  0  0  0  0
   -0.1581    0.8870    0.0000 C   0  0  0  0  0  0  0  0  0  0  0  0
   -0.1306   -0.5422    0.0000 C   0  0  0  0  0  0  0  0  0  0  0  0
    0.6643    0.9068    0.0000 C   0  0  0  0  0  0  0  0  0  0  0  0
    3.5698    0.1751    0.0000 N   0  0  3  0  0  0  0  0  0  0  0  0
   -0.5552    0.1700    0.0000 C   0  0  0  0  0  0  0  0  0  0  0  0
    1.9243    0.1931    0.0000 C   0  0  0  0  0  0  0  0  0  0  0  0
    4.3697   -1.2640    0.0000 C   0  0  0  0  0  0  0  0  0  0  0  0
    3.1023    0.8859    0.0000 C   0  0  0  0  0  0  0  0  0  0  0  0
    2.7089   -2.6764    0.0000 O   0  0  0  0  0  0  0  0  0  0  0  0
    4.7918   -0.5562    0.0000 C   0  0  0  0  0  0  0  0  0  0  0  0
    4.3942    0.1671    0.0000 C   0  0  0  0  0  0  0  0  0  0  0  0
    1.4762   -1.9512    0.0000 H   0  0  0  0  0  0  0  0  0  0  0  0
    2.7374    0.1881    0.0000 H   0  0  0  0  0  0  0  0  0  0  0  0
    2.2145   -3.5110    0.0000 H   0  0  0  0  0  0  0  0  0  0  0  0
  1  9  1  0  0  0  0
  1  3  1  1  0  0  0
  2 18  1  0  0  0  0
  2  3  1  1  0  0  0
  3 21  1  1  0  0  0
  3  4  1  0  0  0  0
  4  7  1  0  0  0  0
  5  6  1  0  0  0  0
  6 22  1  0  0  0  0
  6  1  1  1  0  0  0
  7  9  2  0  0  0  0
  7 11  1  0  0  0  0
  8  2  1  0  0  0  0
  8  5  1  0  0  0  0
  9 12  1  0  0  0  0
 11 14  2  0  0  0  0
 12 10  2  0  0  0  0
 13  6  1  0  0  0  0
 14 10  1  0  0  0  0
 15  1  1  0  0  0  0
 16  5  1  0  0  0  0
 17 15  1  0  0  0  0
 17 13  1  0  0  0  0
 18 23  1  0  0  0  0
 19 20  1  0  0  0  0
 19 16  2  0  0  0  0
 20 13  1  0  0  0  0
M  END
$$$$
O=C1[C@@H](N)CCc2c(N1C)cccc2
 OpenBabel07182308452D

 16 17  0  0  0  0  0  0  0  0999 V2000
   -1.5103    0.8299    0.0000 C   0  0  0  0  0  0  0  0  0  0  0  0
   -0.6873    0.8298    0.0000 C   0  0  0  0  0  0  0  0  0  0  0  0
   -1.8478   -0.6128    0.0000 C   0  0  0  0  0  0  0  0  0  0  0  0
   -2.0267    0.1873    0.0000 C   0  0  0  0  0  0  0  0  0  0  0  0
   -2.4535   -1.1786    0.0000 C   0  0  0  0  0  0  0  0  0  0  0  0
   -3.2370   -0.9363    0.0000 C   0  0  0  0  0  0  0  0  0  0  0  0
   -3.4193   -0.1315    0.0000 C   0  0  0  0  0  0  0  0  0  0  0  0
   -2.8180    0.4308    0.0000 C   0  0  0  0  0  0  0  0  0  0  0  0
   -1.1017   -0.9763    0.0000 N   0  0  0  0  0  0  0  0  0  0  0  0
   -1.1060   -1.8028    0.0000 C   0  0  0  0  0  0  0  0  0  0  0  0
   -0.3592   -0.6183    0.0000 C   0  0  0  0  0  0  0  0  0  0  0  0
    0.2833   -1.1346    0.0000 O   0  0  0  0  0  0  0  0  0  0  0  0
   -0.1769    0.1877    0.0000 C   0  0  1  0  0  0  0  0  0  0  0  0
    0.5474    0.5765    0.0000 N   0  0  0  0  0  0  0  0  0  0  0  0
    0.5337   -0.2253    0.0000 H   0  0  0  0  0  0  0  0  0  0  0  0
    1.4192    0.0470    0.0000 H   0  0  0  0  0  0  0  0  0  0  0  0
  1  2  1  0  0  0  0
  2 13  1  0  0  0  0
  4  1  1  0  0  0  0
  4  3  1  0  0  0  0
  5  3  2  0  0  0  0
  5  6  1  0  0  0  0
  6  7  2  0  0  0  0
  7  8  1  0  0  0  0
  8  4  2  0  0  0  0
  9  3  1  0  0  0  0
  9 10  1  0  0  0  0
 11  9  1  0  0  0  0
 11 12  2  0  0  0  0
 13 11  1  0  0  0  0
 13 14  1  0  0  0  0
 13 15  1  1  0  0  0
 14 16  1  0  0  0  0
M  END
$$$$
C[n+]1cccc(c1)O
 OpenBabel07182308452D

  8  8  0  0  0  0  0  0  0  0999 V2000
    3.0791    0.2063    0.0000 O   0  0  0  0  0  0  0  0  0  0  0  0
    4.5080   -1.4438    0.0000 N   0  3  0  0  0  0  0  0  0  0  0  0
    3.7935   -0.2063    0.0000 C   0  0  0  0  0  0  0  0  0  0  0  0
    3.7935   -1.0313    0.0000 C   0  0  0  0  0  0  0  0  0  0  0  0
    5.2224   -1.0313    0.0000 C   0  0  0  0  0  0  0  0  0  0  0  0
    4.5080    0.2063    0.0000 C   0  0  0  0  0  0  0  0  0  0  0  0
    5.2224   -0.2063    0.0000 C   0  0  0  0  0  0  0  0  0  0  0  0
    4.5080   -2.2688    0.0000 C   0  0  0  0  0  0  0  0  0  0  0  0
  1  3  1  0  0  0  0
  2  4  1  0  0  0  0
  2  5  2  0  0  0  0
  2  8  1  0  0  0  0
  3  4  2  0  0  0  0
  3  6  1  0  0  0  0
  5  7  1  0  0  0  0
  6  7  2  0  0  0  0
M  CHG  1   2   1
M  END
$$$$
C[C@@H]1C[C@@H]2[C@](C1)(C)C[C@@H]([C@]1([C@H]2CCC2=CC(=O)C=C[C@]12C)F)O
 OpenBabel07182308452D

 26 29  0  0  1  0  0  0  0  0999 V2000
    4.1400    0.0373    0.0000 F   0  0  0  0  0  0  0  0  0  0  0  0
    3.9559    0.6428    0.0000 O   0  0  0  0  0  0  0  0  0  0  0  0
    1.6500   -2.2879    0.0000 O   0  0  0  0  0  0  0  0  0  0  0  0
    6.0994    0.2303    0.0000 C   0  0  1  0  0  0  0  0  0  0  0  0
    6.0994   -0.5947    0.0000 C   0  0  2  0  0  0  0  0  0  0  0  0
    5.3849   -1.0072    0.0000 C   0  0  1  0  0  0  0  0  0  0  0  0
    4.6704   -0.5947    0.0000 C   0  0  1  0  0  0  0  0  0  0  0  0
    6.8800    0.4817    0.0000 C   0  0  0  0  0  0  0  0  0  0  0  0
    6.8800   -0.8461    0.0000 C   0  0  0  0  0  0  0  0  0  0  0  0
    5.3849    0.6428    0.0000 C   0  0  0  0  0  0  0  0  0  0  0  0
    7.3614   -0.1822    0.0000 C   0  0  1  0  0  0  0  0  0  0  0  0
    4.6704    0.2303    0.0000 C   0  0  2  0  0  0  0  0  0  0  0  0
    3.9196   -1.0129    0.0000 C   0  0  1  0  0  0  0  0  0  0  0  0
    5.3981   -1.8664    0.0000 C   0  0  0  0  0  0  0  0  0  0  0  0
    6.0994    1.0553    0.0000 C   0  0  0  0  0  0  0  0  0  0  0  0
    4.6572   -2.3019    0.0000 C   0  0  0  0  0  0  0  0  0  0  0  0
    3.9130   -1.8722    0.0000 C   0  0  0  0  0  0  0  0  0  0  0  0
    8.1865   -0.1822    0.0000 C   0  0  0  0  0  0  0  0  0  0  0  0
    3.6435   -0.2355    0.0000 C   0  0  0  0  0  0  0  0  0  0  0  0
    3.1550   -0.5475    0.0000 C   0  0  0  0  0  0  0  0  0  0  0  0
    3.1413   -2.3257    0.0000 C   0  0  0  0  0  0  0  0  0  0  0  0
    2.3730   -0.9830    0.0000 C   0  0  0  0  0  0  0  0  0  0  0  0
    2.3660   -1.8781    0.0000 C   0  0  0  0  0  0  0  0  0  0  0  0
    6.1691   -1.2510    0.0000 H   0  0  0  0  0  0  0  0  0  0  0  0
    5.9589   -1.3328    0.0000 H   0  0  0  0  0  0  0  0  0  0  0  0
    3.9559    1.6128    0.0000 H   0  0  0  0  0  0  0  0  0  0  0  0
  2 26  1  0  0  0  0
  3 23  2  0  0  0  0
  4  5  1  1  0  0  0
  4  8  1  0  0  0  0
  4 10  1  0  0  0  0
  4 15  1  0  0  0  0
  5  6  1  1  0  0  0
  5  9  1  0  0  0  0
  5 24  1  0  0  0  0
  6  7  1  1  0  0  0
  6 14  1  0  0  0  0
  6 25  1  0  0  0  0
  7  1  1  0  0  0  0
  7 13  1  1  0  0  0
  8 11  1  0  0  0  0
  9 11  1  0  0  0  0
 10 12  1  0  0  0  0
 11 18  1  6  0  0  0
 12  2  1  0  0  0  0
 12  7  1  1  0  0  0
 13 17  1  0  0  0  0
 13 19  1  1  0  0  0
 13 20  1  0  0  0  0
 14 16  1  0  0  0  0
 16 17  1  0  0  0  0
 17 21  2  0  0  0  0
 20 22  2  0  0  0  0
 21 23  1  0  0  0  0
 22 23  1  0  0  0  0
M  END
$$$$
Nc1ccc2c(c1)ccn2C
 OpenBabel07182308452D

 12 13  0  0  0  0  0  0  0  0999 V2000
    0.4651   -2.2629    0.0000 C   0  0  0  0  0  0  0  0  0  0  0  0
    1.1796   -2.6754    0.0000 C   0  0  0  0  0  0  0  0  0  0  0  0
    0.4651   -1.4379    0.0000 C   0  0  0  0  0  0  0  0  0  0  0  0
    1.1796   -1.0254    0.0000 C   0  0  0  0  0  0  0  0  0  0  0  0
    1.8940   -2.2629    0.0000 C   0  0  0  0  0  0  0  0  0  0  0  0
    1.8940   -1.4379    0.0000 C   0  0  0  0  0  0  0  0  0  0  0  0
    2.6787   -1.1830    0.0000 C   0  0  0  0  0  0  0  0  0  0  0  0
    2.6787   -2.5179    0.0000 N   0  0  0  0  0  0  0  0  0  0  0  0
    2.9336   -3.3025    0.0000 C   0  0  0  0  0  0  0  0  0  0  0  0
   -0.2493   -1.0254    0.0000 N   0  0  0  0  0  0  0  0  0  0  0  0
    3.1636   -1.8504    0.0000 C   0  0  0  0  0  0  0  0  0  0  0  0
   -0.2493   -0.0409    0.0000 H   0  0  0  0  0  0  0  0  0  0  0  0
  2  1  2  0  0  0  0
  3  1  1  0  0  0  0
  4  3  2  0  0  0  0
  5  2  1  0  0  0  0
  6  5  2  0  0  0  0
  6  4  1  0  0  0  0
  6  7  1  0  0  0  0
  8  5  1  0  0  0  0
  9  8  1  0  0  0  0
 10  3  1  0  0  0  0
 10 12  1  0  0  0  0
 11  7  2  0  0  0  0
 11  8  1  0  0  0  0
M  END
$$$$
C1CCCC1
 OpenBabel07182308452D

  5  5  0  0  0  0  0  0  0  0999 V2000
   -2.3928   -1.4379    0.0000 C   0  0  0  0  0  0  0  0  0  0  0  0
   -3.1465   -1.1025    0.0000 C   0  0  0  0  0  0  0  0  0  0  0  0
   -3.6985   -1.7155    0.0000 C   0  0  0  0  0  0  0  0  0  0  0  0
   -3.2860   -2.4300    0.0000 C   0  0  0  0  0  0  0  0  0  0  0  0
   -2.4790   -2.2585    0.0000 C   0  0  0  0  0  0  0  0  0  0  0  0
  2  1  1  0  0  0  0
  3  2  1  0  0  0  0
  4  3  1  0  0  0  0
  4  5  1  0  0  0  0
  5  1  1  0  0  0  0
M  END
$$$$
Cc1cc(=O)[nH]c(=S)[nH]1
 OpenBabel07182308452D

 11 11  0  0  0  0  0  0  0  0999 V2000
    5.9370   -0.9818    0.0000 S   0  0  0  0  0  0  0  0  0  0  0  0
    4.5080    1.4933    0.0000 O   0  0  0  0  0  0  0  0  0  0  0  0
    4.5080   -0.9818    0.0000 N   0  0  0  0  0  0  0  0  0  0  0  0
    5.2224    0.2558    0.0000 N   0  0  0  0  0  0  0  0  0  0  0  0
    3.0791   -0.9818    0.0000 C   0  0  0  0  0  0  0  0  0  0  0  0
    3.7935   -0.5693    0.0000 C   0  0  0  0  0  0  0  0  0  0  0  0
    3.7935    0.2558    0.0000 C   0  0  0  0  0  0  0  0  0  0  0  0
    5.2224   -0.5693    0.0000 C   0  0  0  0  0  0  0  0  0  0  0  0
    4.5080    0.6683    0.0000 C   0  0  0  0  0  0  0  0  0  0  0  0
    4.5080   -1.9663    0.0000 H   0  0  0  0  0  0  0  0  0  0  0  0
    6.0750    0.7480    0.0000 H   0  0  0  0  0  0  0  0  0  0  0  0
  1  8  2  0  0  0  0
  2  9  2  0  0  0  0
  3  6  1  0  0  0  0
  3  8  1  0  0  0  0
  3 10  1  0  0  0  0
  4  8  1  0  0  0  0
  4  9  1  0  0  0  0
  4 11  1  0  0  0  0
  5  6  1  0  0  0  0
  6  7  2  0  0  0  0
  7  9  1  0  0  0  0
M  END
$$$$
NO
 OpenBabel07182308452D

  4  3  0  0  0  0  0  0  0  0999 V2000
    2.0930    0.0495    0.0000 O   0  0  0  0  0  0  0  0  0  0  0  0
    2.8075   -0.3630    0.0000 N   0  0  0  0  0  0  0  0  0  0  0  0
    2.0930    1.0195    0.0000 H   0  0  0  0  0  0  0  0  0  0  0  0
    2.8075   -1.3475    0.0000 H   0  0  0  0  0  0  0  0  0  0  0  0
  1  2  1  0  0  0  0
  1  3  1  0  0  0  0
  2  4  1  0  0  0  0
M  END
$$$$
O[C@@H]1CNC=Nc2c1nc[nH]2
 OpenBabel07182308452D

 13 14  0  0  0  0  0  0  0  0999 V2000
   -0.1845    2.6331    0.0000 O   0  0  0  0  0  0  0  0  0  0  0  0
    1.0577    1.5601    0.0000 N   0  0  0  0  0  0  0  0  0  0  0  0
   -0.3801   -0.0257    0.0000 N   0  0  0  0  0  0  0  0  0  0  0  0
   -1.5377    0.9099    0.0000 N   0  0  0  0  0  0  0  0  0  0  0  0
    0.2700    0.4870    0.0000 C   0  0  0  0  0  0  0  0  0  0  0  0
    0.2753    1.3117    0.0000 C   0  0  0  0  0  0  0  0  0  0  0  0
    1.5334    0.8940    0.0000 C   0  0  0  0  0  0  0  0  0  0  0  0
   -0.3694    1.8297    0.0000 C   0  0  1  0  0  0  0  0  0  0  0  0
   -1.1782    1.6500    0.0000 C   0  0  0  0  0  0  0  0  0  0  0  0
   -1.1835    0.1592    0.0000 C   0  0  0  0  0  0  0  0  0  0  0  0
    1.0471    0.2280    0.0000 N   0  0  0  0  0  0  0  0  0  0  0  0
    0.7429    2.9173    0.0000 H   0  0  0  0  0  0  0  0  0  0  0  0
   -2.5222    0.9155    0.0000 H   0  0  0  0  0  0  0  0  0  0  0  0
  1 12  1  0  0  0  0
  2  6  1  0  0  0  0
  2  7  2  0  0  0  0
  3  5  1  0  0  0  0
  3 10  2  0  0  0  0
  4  9  1  0  0  0  0
  4 10  1  0  0  0  0
  4 13  1  0  0  0  0
  5 11  1  0  0  0  0
  5  6  2  0  0  0  0
  6  8  1  0  0  0  0
  7 11  1  0  0  0  0
  8  1  1  1  0  0  0
  8  9  1  0  0  0  0
M  END
$$$$
O=c1ccc2c(o1)cc1c(c2)cco1
 OpenBabel07182308452D

 14 16  0  0  0  0  0  0  0  0999 V2000
    3.3523   -1.1104    0.0000 C   0  0  0  0  0  0  0  0  0  0  0  0
    4.0668   -1.5229    0.0000 C   0  0  0  0  0  0  0  0  0  0  0  0
    4.7812   -1.1104    0.0000 O   0  0  0  0  0  0  0  0  0  0  0  0
    5.4957   -1.5229    0.0000 C   0  0  0  0  0  0  0  0  0  0  0  0
    6.2102   -1.1104    0.0000 O   0  0  0  0  0  0  0  0  0  0  0  0
    5.4957   -2.3479    0.0000 C   0  0  0  0  0  0  0  0  0  0  0  0
    4.7812   -2.7604    0.0000 C   0  0  0  0  0  0  0  0  0  0  0  0
    4.0668   -2.3479    0.0000 C   0  0  0  0  0  0  0  0  0  0  0  0
    3.3523   -2.7604    0.0000 C   0  0  0  0  0  0  0  0  0  0  0  0
    2.6378   -2.3479    0.0000 C   0  0  0  0  0  0  0  0  0  0  0  0
    2.6378   -1.5229    0.0000 C   0  0  0  0  0  0  0  0  0  0  0  0
    1.8532   -1.2680    0.0000 O   0  0  0  0  0  0  0  0  0  0  0  0
    1.3683   -1.9354    0.0000 C   0  0  0  0  0  0  0  0  0  0  0  0
    1.8532   -2.6029    0.0000 C   0  0  0  0  0  0  0  0  0  0  0  0
  1  2  2  0  0  0  0
  1 11  1  0  0  0  0
  2  3  1  0  0  0  0
  2  8  1  0  0  0  0
  3  4  1  0  0  0  0
  4  5  2  0  0  0  0
  4  6  1  0  0  0  0
  6  7  2  0  0  0  0
  7  8  1  0  0  0  0
  8  9  2  0  0  0  0
  9 10  1  0  0  0  0
 10 11  2  0  0  0  0
 10 14  1  0  0  0  0
 11 12  1  0  0  0  0
 12 13  1  0  0  0  0
 13 14  2  0  0  0  0
M  END
$$$$
OC1=CN(C)S(=O)(=O)c2c1cccc2
 OpenBabel07182308452D

 15 16  0  0  0  0  0  0  0  0999 V2000
   -3.4179    0.7661    0.0000 C   0  0  0  0  0  0  0  0  0  0  0  0
   -4.1323    1.1786    0.0000 C   0  0  0  0  0  0  0  0  0  0  0  0
   -4.8468    0.7661    0.0000 C   0  0  0  0  0  0  0  0  0  0  0  0
   -4.8468   -0.0589    0.0000 C   0  0  0  0  0  0  0  0  0  0  0  0
   -4.1323   -0.4714    0.0000 C   0  0  0  0  0  0  0  0  0  0  0  0
   -3.4179   -0.0589    0.0000 C   0  0  0  0  0  0  0  0  0  0  0  0
   -2.7034   -0.4714    0.0000 S   0  0  0  0  0  0  0  0  0  0  0  0
   -1.9889   -0.0589    0.0000 N   0  0  0  0  0  0  0  0  0  0  0  0
   -1.9889    0.7661    0.0000 C   0  0  0  0  0  0  0  0  0  0  0  0
   -2.7034    1.1786    0.0000 C   0  0  0  0  0  0  0  0  0  0  0  0
   -1.2744   -0.4714    0.0000 C   0  0  0  0  0  0  0  0  0  0  0  0
   -2.7034    2.0036    0.0000 O   0  0  0  0  0  0  0  0  0  0  0  0
   -3.2868   -1.0548    0.0000 O   0  0  0  0  0  0  0  0  0  0  0  0
   -2.1200   -1.0548    0.0000 O   0  0  0  0  0  0  0  0  0  0  0  0
   -1.8919    2.4721    0.0000 H   0  0  0  0  0  0  0  0  0  0  0  0
  1  2  1  0  0  0  0
  1  6  2  0  0  0  0
  1 10  1  0  0  0  0
  2  3  2  0  0  0  0
  3  4  1  0  0  0  0
  4  5  2  0  0  0  0
  5  6  1  0  0  0  0
  6  7  1  0  0  0  0
  7  8  1  0  0  0  0
  7 13  2  0  0  0  0
  7 14  2  0  0  0  0
  8  9  1  0  0  0  0
  8 11  1  0  0  0  0
  9 10  2  0  0  0  0
 10 12  1  0  0  0  0
 12 15  1  0  0  0  0
M  END
$$$$
Clc1ccccc1Cl
 OpenBabel07182308452D

  8  8  0  0  0  0  0  0  0  0999 V2000
    4.9509    0.9529    0.0000 Cl  0  0  0  0  0  0  0  0  0  0  0  0
    4.9509    2.6029    0.0000 Cl  0  0  0  0  0  0  0  0  0  0  0  0
    3.5220    0.9529    0.0000 C   0  0  0  0  0  0  0  0  0  0  0  0
    4.2365    1.3654    0.0000 C   0  0  0  0  0  0  0  0  0  0  0  0
    2.8075    1.3654    0.0000 C   0  0  0  0  0  0  0  0  0  0  0  0
    4.2365    2.1904    0.0000 C   0  0  0  0  0  0  0  0  0  0  0  0
    2.8075    2.1904    0.0000 C   0  0  0  0  0  0  0  0  0  0  0  0
    3.5220    2.6029    0.0000 C   0  0  0  0  0  0  0  0  0  0  0  0
  1  4  1  0  0  0  0
  2  6  1  0  0  0  0
  3  4  2  0  0  0  0
  3  5  1  0  0  0  0
  4  6  1  0  0  0  0
  5  7  2  0  0  0  0
  6  8  2  0  0  0  0
  7  8  1  0  0  0  0
M  END
$$$$
Nc1cnnc(n1)N
 OpenBabel07182308452D

 12 12  0  0  0  0  0  0  0  0999 V2000
    4.2365   -0.2846    0.0000 N   0  0  0  0  0  0  0  0  0  0  0  0
    2.8075   -1.1096    0.0000 N   0  0  0  0  0  0  0  0  0  0  0  0
    2.0930    0.1279    0.0000 N   0  0  0  0  0  0  0  0  0  0  0  0
    4.2365   -1.1096    0.0000 N   0  0  0  0  0  0  0  0  0  0  0  0
    3.5220   -2.3472    0.0000 N   0  0  0  0  0  0  0  0  0  0  0  0
    3.5220    0.1279    0.0000 C   0  0  0  0  0  0  0  0  0  0  0  0
    2.8075   -0.2846    0.0000 C   0  0  0  0  0  0  0  0  0  0  0  0
    3.5220   -1.5222    0.0000 C   0  0  0  0  0  0  0  0  0  0  0  0
    2.0930    1.1124    0.0000 H   0  0  0  0  0  0  0  0  0  0  0  0
    1.2404   -0.3644    0.0000 H   0  0  0  0  0  0  0  0  0  0  0  0
    2.6694   -2.8395    0.0000 H   0  0  0  0  0  0  0  0  0  0  0  0
    4.3746   -2.8394    0.0000 H   0  0  0  0  0  0  0  0  0  0  0  0
  1  4  2  0  0  0  0
  1  6  1  0  0  0  0
  2  7  1  0  0  0  0
  2  8  2  0  0  0  0
  3  7  1  0  0  0  0
  3  9  1  0  0  0  0
  3 10  1  0  0  0  0
  4  8  1  0  0  0  0
  5  8  1  0  0  0  0
  5 11  1  0  0  0  0
  5 12  1  0  0  0  0
  6  7  2  0  0  0  0
M  END
$$$$
N[C@H]1COC=CC1
 OpenBabel07182308452D

  9  9  0  0  1  0  0  0  0  0999 V2000
    4.9509   -0.5693    0.0000 O   0  0  0  0  0  0  0  0  0  0  0  0
    5.6655    1.4933    0.0000 N   0  0  0  0  0  0  0  0  0  0  0  0
    4.9509    0.2558    0.0000 C   0  0  0  0  0  0  0  0  0  0  0  0
    5.6655    0.6683    0.0000 C   0  0  1  0  0  0  0  0  0  0  0  0
    6.3799    0.2558    0.0000 C   0  0  0  0  0  0  0  0  0  0  0  0
    6.3799   -0.5693    0.0000 C   0  0  0  0  0  0  0  0  0  0  0  0
    5.6655   -0.9818    0.0000 C   0  0  0  0  0  0  0  0  0  0  0  0
    4.3794   -0.0743    0.0000 H   0  0  0  0  0  0  0  0  0  0  0  0
    4.8129    1.9855    0.0000 H   0  0  0  0  0  0  0  0  0  0  0  0
  1  3  1  0  0  0  0
  1  7  1  0  0  0  0
  2  9  1  0  0  0  0
  3  4  1  0  0  0  0
  3  8  1  0  0  0  0
  4  2  1  6  0  0  0
  4  5  1  0  0  0  0
  5  6  1  0  0  0  0
  6  7  2  0  0  0  0
M  END
$$$$
Oc1ncncc1O
 OpenBabel07182308452D

  8  8  0  0  0  0  0  0  0  0999 V2000
    3.7935    0.1832    0.0000 O   0  0  0  0  0  0  0  0  0  0  0  0
    3.7935   -1.4669    0.0000 O   0  0  0  0  0  0  0  0  0  0  0  0
    5.9370   -0.2294    0.0000 N   0  0  0  0  0  0  0  0  0  0  0  0
    5.2224   -1.4669    0.0000 N   0  0  0  0  0  0  0  0  0  0  0  0
    5.2224    0.1832    0.0000 C   0  0  0  0  0  0  0  0  0  0  0  0
    4.5080   -0.2294    0.0000 C   0  0  0  0  0  0  0  0  0  0  0  0
    4.5080   -1.0544    0.0000 C   0  0  0  0  0  0  0  0  0  0  0  0
    5.9370   -1.0544    0.0000 C   0  0  0  0  0  0  0  0  0  0  0  0
  1  6  1  0  0  0  0
  2  7  1  0  0  0  0
  3  5  1  0  0  0  0
  3  8  2  0  0  0  0
  4  7  2  0  0  0  0
  4  8  1  0  0  0  0
  5  6  2  0  0  0  0
  6  7  1  0  0  0  0
M  END
$$$$
OC1=CC(=O)[C@@]2([C@H](C1)C[C@@H]1Cc3ccc(c(c3C(=O)C1=C2O)O)N)O
 OpenBabel07182308452D

 32 35  0  0  0  0  0  0  0  0999 V2000
    3.2354    1.0389    0.0000 C   0  0  0  0  0  0  0  0  0  0  0  0
    3.9383    0.6112    0.0000 C   0  0  0  0  0  0  0  0  0  0  0  0
    3.9383   -0.2138    0.0000 C   0  0  0  0  0  0  0  0  0  0  0  0
    3.2354   -0.6112    0.0000 C   0  0  0  0  0  0  0  0  0  0  0  0
    2.5021   -0.2138    0.0000 C   0  0  2  0  0  0  0  0  0  0  0  0
    1.7992   -0.6112    0.0000 C   0  0  0  0  0  0  0  0  0  0  0  0
    1.0658   -0.2138    0.0000 C   0  0  2  0  0  0  0  0  0  0  0  0
    0.3629   -0.6112    0.0000 C   0  0  0  0  0  0  0  0  0  0  0  0
   -0.3703   -0.2138    0.0000 C   0  0  0  0  0  0  0  0  0  0  0  0
   -1.0732   -0.6112    0.0000 C   0  0  0  0  0  0  0  0  0  0  0  0
   -1.8065   -0.2138    0.0000 C   0  0  0  0  0  0  0  0  0  0  0  0
   -1.8065    0.6112    0.0000 C   0  0  0  0  0  0  0  0  0  0  0  0
   -1.0732    1.0389    0.0000 C   0  0  0  0  0  0  0  0  0  0  0  0
   -0.3703    0.6112    0.0000 C   0  0  0  0  0  0  0  0  0  0  0  0
    0.3629    1.0389    0.0000 C   0  0  0  0  0  0  0  0  0  0  0  0
    1.0658    0.6112    0.0000 C   0  0  0  0  0  0  0  0  0  0  0  0
    1.7992    1.0389    0.0000 C   0  0  0  0  0  0  0  0  0  0  0  0
    2.5021    0.6112    0.0000 C   0  0  2  0  0  0  0  0  0  0  0  0
    0.3629    1.8640    0.0000 O   0  0  0  0  0  0  0  0  0  0  0  0
    3.2354    1.8640    0.0000 O   0  0  0  0  0  0  0  0  0  0  0  0
    2.5021    1.4362    0.0000 O   0  0  0  0  0  0  0  0  0  0  0  0
    1.7992    1.8640    0.0000 O   0  0  0  0  0  0  0  0  0  0  0  0
   -1.0732    1.8640    0.0000 O   0  0  0  0  0  0  0  0  0  0  0  0
    4.6716   -0.6112    0.0000 O   0  0  0  0  0  0  0  0  0  0  0  0
   -2.5094    1.0389    0.0000 N   0  0  0  0  0  0  0  0  0  0  0  0
    2.5021   -1.0389    0.0000 H   0  0  0  0  0  0  0  0  0  0  0  0
    1.0658   -1.0389    0.0000 H   0  0  0  0  0  0  0  0  0  0  0  0
    3.3421    1.9212    0.0000 H   0  0  0  0  0  0  0  0  0  0  0  0
    2.6107    2.3325    0.0000 H   0  0  0  0  0  0  0  0  0  0  0  0
   -0.2617    2.3325    0.0000 H   0  0  0  0  0  0  0  0  0  0  0  0
    4.6969   -1.5479    0.0000 H   0  0  0  0  0  0  0  0  0  0  0  0
   -2.4974    2.0233    0.0000 H   0  0  0  0  0  0  0  0  0  0  0  0
  2  1  1  0  0  0  0
  3  2  2  0  0  0  0
  4  3  1  0  0  0  0
  5  4  1  0  0  0  0
  5 18  1  1  0  0  0
  5 26  1  0  0  0  0
  6  5  1  0  0  0  0
  7  6  1  0  0  0  0
  7 27  1  1  0  0  0
  8  7  1  0  0  0  0
  9  8  1  0  0  0  0
 10  9  1  0  0  0  0
 11 10  2  0  0  0  0
 12 11  1  0  0  0  0
 13 12  2  0  0  0  0
 14  9  2  0  0  0  0
 14 13  1  0  0  0  0
 15 14  1  0  0  0  0
 16  7  1  0  0  0  0
 16 15  1  0  0  0  0
 17 16  2  0  0  0  0
 18  1  1  0  0  0  0
 18 17  1  0  0  0  0
 18 21  1  1  0  0  0
 19 15  2  0  0  0  0
 20  1  2  0  0  0  0
 21 28  1  0  0  0  0
 22 17  1  0  0  0  0
 22 29  1  0  0  0  0
 23 13  1  0  0  0  0
 23 30  1  0  0  0  0
 24  3  1  0  0  0  0
 24 31  1  0  0  0  0
 25 12  1  0  0  0  0
 25 32  1  0  0  0  0
M  END
$$$$
CC1CC(=O)NC1
 OpenBabel07182308452D

  7  7  0  0  1  0  0  0  0  0999 V2000
    3.0614    1.1210    0.0000 O   0  0  0  0  0  0  0  0  0  0  0  0
    4.5135    1.3510    0.0000 N   0  0  0  0  0  0  0  0  0  0  0  0
    4.9260    0.0813    0.0000 C   0  0  3  0  0  0  0  0  0  0  0  0
    4.1010    0.0813    0.0000 C   0  0  0  0  0  0  0  0  0  0  0  0
    5.1809    0.8660    0.0000 C   0  0  0  0  0  0  0  0  0  0  0  0
    5.4110   -0.5861    0.0000 C   0  0  0  0  0  0  0  0  0  0  0  0
    3.8461    0.8660    0.0000 C   0  0  0  0  0  0  0  0  0  0  0  0
  1  7  2  0  0  0  0
  2  5  1  0  0  0  0
  2  7  1  0  0  0  0
  3  4  1  0  0  0  0
  3  5  1  0  0  0  0
  3  6  1  0  0  0  0
  4  7  1  0  0  0  0
M  END
$$$$
CC1=Nc2cc(Cl)ccc2S(=O)(=O)N1
 OpenBabel07182308452D

 15 16  0  0  0  0  0  0  0  0999 V2000
    0.3572    1.0865    0.0000 C   0  0  0  0  0  0  0  0  0  0  0  0
    0.3572    1.9115    0.0000 C   0  0  0  0  0  0  0  0  0  0  0  0
   -0.3572    0.6740    0.0000 N   0  0  0  0  0  0  0  0  0  0  0  0
    1.0717    0.6740    0.0000 C   0  0  0  0  0  0  0  0  0  0  0  0
    1.0717    2.3240    0.0000 C   0  0  0  0  0  0  0  0  0  0  0  0
   -0.3572    2.3240    0.0000 S   0  0  0  0  0  0  0  0  0  0  0  0
   -1.0717    1.0865    0.0000 C   0  0  0  0  0  0  0  0  0  0  0  0
    1.7861    1.0865    0.0000 C   0  0  0  0  0  0  0  0  0  0  0  0
    1.7861    1.9115    0.0000 C   0  0  0  0  0  0  0  0  0  0  0  0
   -1.0717    1.9115    0.0000 N   0  0  0  0  0  0  0  0  0  0  0  0
   -0.7697    3.0384    0.0000 O   0  0  0  0  0  0  0  0  0  0  0  0
    0.0552    3.0384    0.0000 O   0  0  0  0  0  0  0  0  0  0  0  0
   -1.7861    0.6740    0.0000 C   0  0  0  0  0  0  0  0  0  0  0  0
    2.5006    0.6740    0.0000 Cl  0  0  0  0  0  0  0  0  0  0  0  0
   -1.9243    2.4038    0.0000 H   0  0  0  0  0  0  0  0  0  0  0  0
  1  2  2  0  0  0  0
  1  3  1  0  0  0  0
  1  4  1  0  0  0  0
  2  5  1  0  0  0  0
  2  6  1  0  0  0  0
  3  7  2  0  0  0  0
  4  8  2  0  0  0  0
  5  9  2  0  0  0  0
  6 10  1  0  0  0  0
  6 11  2  0  0  0  0
  6 12  2  0  0  0  0
  7 13  1  0  0  0  0
  7 10  1  0  0  0  0
  8 14  1  0  0  0  0
  8  9  1  0  0  0  0
 10 15  1  0  0  0  0
M  END
$$$$
Cc1cnc2c(n1)c(N)[nH]c(=N)n2
 OpenBabel07182308452D

 17 18  0  0  0  0  0  0  0  0999 V2000
   -1.4289    0.8250    0.0000 C   0  0  0  0  0  0  0  0  0  0  0  0
   -2.1434   -0.4125    0.0000 C   0  0  0  0  0  0  0  0  0  0  0  0
   -1.4289    0.0000    0.0000 C   0  0  0  0  0  0  0  0  0  0  0  0
   -0.0000    0.0000    0.0000 C   0  0  0  0  0  0  0  0  0  0  0  0
    0.7145   -0.4125    0.0000 C   0  0  0  0  0  0  0  0  0  0  0  0
   -0.0000    0.8250    0.0000 C   0  0  0  0  0  0  0  0  0  0  0  0
    1.4289    0.8250    0.0000 C   0  0  0  0  0  0  0  0  0  0  0  0
    0.7145   -1.2375    0.0000 N   0  0  0  0  0  0  0  0  0  0  0  0
    2.1434    1.2375    0.0000 N   0  0  0  0  0  0  0  0  0  0  0  0
   -0.7145    1.2375    0.0000 N   0  0  0  0  0  0  0  0  0  0  0  0
   -0.7145   -0.4125    0.0000 N   0  0  0  0  0  0  0  0  0  0  0  0
    1.4289    0.0000    0.0000 N   0  0  0  0  0  0  0  0  0  0  0  0
    0.7145    1.2375    0.0000 N   0  0  0  0  0  0  0  0  0  0  0  0
   -0.1381   -1.7298    0.0000 H   0  0  0  0  0  0  0  0  0  0  0  0
    1.5671   -1.7298    0.0000 H   0  0  0  0  0  0  0  0  0  0  0  0
    2.9960    0.7452    0.0000 H   0  0  0  0  0  0  0  0  0  0  0  0
    2.2815   -0.4922    0.0000 H   0  0  0  0  0  0  0  0  0  0  0  0
  3  1  1  0  0  0  0
  3  2  1  0  0  0  0
  5  4  2  0  0  0  0
  6  4  1  0  0  0  0
  8  5  1  0  0  0  0
  8 14  1  0  0  0  0
  8 15  1  0  0  0  0
  9  7  2  0  0  0  0
  9 16  1  0  0  0  0
 10  1  2  0  0  0  0
 10  6  1  0  0  0  0
 11  3  2  0  0  0  0
 11  4  1  0  0  0  0
 12  5  1  0  0  0  0
 12  7  1  0  0  0  0
 12 17  1  0  0  0  0
 13  6  2  0  0  0  0
 13  7  1  0  0  0  0
M  END
$$$$
c1ccc2c(c1)C=Cc1c(N2)cccc1
 OpenBabel07182308452D

 15 17  0  0  0  0  0  0  0  0999 V2000
    3.8677   -0.0280    0.0000 N   0  0  0  0  0  0  0  0  0  0  0  0
    4.5814    0.3157    0.0000 C   0  0  0  0  0  0  0  0  0  0  0  0
    3.1540    0.3157    0.0000 C   0  0  0  0  0  0  0  0  0  0  0  0
    4.7576    1.0879    0.0000 C   0  0  0  0  0  0  0  0  0  0  0  0
    2.9778    1.0879    0.0000 C   0  0  0  0  0  0  0  0  0  0  0  0
    4.2637    1.7072    0.0000 C   0  0  0  0  0  0  0  0  0  0  0  0
    3.4717    1.7072    0.0000 C   0  0  0  0  0  0  0  0  0  0  0  0
    5.1774   -0.2547    0.0000 C   0  0  0  0  0  0  0  0  0  0  0  0
    2.5580   -0.2547    0.0000 C   0  0  0  0  0  0  0  0  0  0  0  0
    5.5421    1.3432    0.0000 C   0  0  0  0  0  0  0  0  0  0  0  0
    2.1933    1.3432    0.0000 C   0  0  0  0  0  0  0  0  0  0  0  0
    5.9676   -0.0177    0.0000 C   0  0  0  0  0  0  0  0  0  0  0  0
    1.7678   -0.0177    0.0000 C   0  0  0  0  0  0  0  0  0  0  0  0
    6.1512    0.7867    0.0000 C   0  0  0  0  0  0  0  0  0  0  0  0
    1.5841    0.7868    0.0000 C   0  0  0  0  0  0  0  0  0  0  0  0
  1  2  1  0  0  0  0
  1  3  1  0  0  0  0
  2  4  1  0  0  0  0
  2  8  2  0  0  0  0
  3  5  1  0  0  0  0
  3  9  2  0  0  0  0
  4  6  1  0  0  0  0
  4 10  2  0  0  0  0
  5  7  1  0  0  0  0
  5 11  2  0  0  0  0
  6  7  2  0  0  0  0
  8 12  1  0  0  0  0
  9 13  1  0  0  0  0
 10 14  1  0  0  0  0
 11 15  1  0  0  0  0
 12 14  2  0  0  0  0
 13 15  2  0  0  0  0
M  END
$$$$
C[NH+]1CCc2c([C@H]1C)cccc2
 OpenBabel07182308452D

 12 13  0  0  0  0  0  0  0  0999 V2000
    4.8051    0.8831    0.0000 N   0  3  3  0  0  0  0  0  0  0  0  0
    6.2114    0.8831    0.0000 C   0  0  0  0  0  0  0  0  0  0  0  0
    5.4912    0.4647    0.0000 C   0  0  1  0  0  0  0  0  0  0  0  0
    6.2114    1.7153    0.0000 C   0  0  0  0  0  0  0  0  0  0  0  0
    6.9219    0.4647    0.0000 C   0  0  0  0  0  0  0  0  0  0  0  0
    7.6518    0.8831    0.0000 C   0  0  0  0  0  0  0  0  0  0  0  0
    6.9219    2.1240    0.0000 C   0  0  0  0  0  0  0  0  0  0  0  0
    7.6518    1.7153    0.0000 C   0  0  0  0  0  0  0  0  0  0  0  0
    4.8051    1.7153    0.0000 C   0  0  0  0  0  0  0  0  0  0  0  0
    5.4912   -0.4598    0.0000 C   0  0  0  0  0  0  0  0  0  0  0  0
    5.4912    2.1240    0.0000 C   0  0  0  0  0  0  0  0  0  0  0  0
    4.0801    1.5741    0.0000 C   0  0  0  0  0  0  0  0  0  0  0  0
  2  3  1  0  0  0  0
  3  1  1  1  0  0  0
  3 10  1  0  0  0  0
  4 11  1  0  0  0  0
  4  2  2  0  0  0  0
  5  2  1  0  0  0  0
  6  5  2  0  0  0  0
  7  4  1  0  0  0  0
  8  7  2  0  0  0  0
  8  6  1  0  0  0  0
  9  1  1  0  0  0  0
 11  9  1  0  0  0  0
 12  1  1  0  0  0  0
M  CHG  1   1   1
M  END
$$$$
C[C@@H]1c2ccccc2CC[N+]1(C)C
 OpenBabel07182308452D

 13 14  0  0  0  0  0  0  0  0999 V2000
   -4.9852    0.7810    0.0000 N   0  3  0  0  0  0  0  0  0  0  0  0
   -6.4012    0.7810    0.0000 C   0  0  0  0  0  0  0  0  0  0  0  0
   -5.6908    0.3917    0.0000 C   0  0  1  0  0  0  0  0  0  0  0  0
   -6.4012    1.6422    0.0000 C   0  0  0  0  0  0  0  0  0  0  0  0
   -7.1165    0.3917    0.0000 C   0  0  0  0  0  0  0  0  0  0  0  0
   -7.8465    0.7810    0.0000 C   0  0  0  0  0  0  0  0  0  0  0  0
   -7.1165    2.0267    0.0000 C   0  0  0  0  0  0  0  0  0  0  0  0
   -7.8465    1.6422    0.0000 C   0  0  0  0  0  0  0  0  0  0  0  0
   -4.2991    0.3917    0.0000 C   0  0  0  0  0  0  0  0  0  0  0  0
   -4.9852    1.6422    0.0000 C   0  0  0  0  0  0  0  0  0  0  0  0
   -5.6908   -0.4452    0.0000 C   0  0  0  0  0  0  0  0  0  0  0  0
   -5.6908    2.0267    0.0000 C   0  0  0  0  0  0  0  0  0  0  0  0
   -4.0363    1.6568    0.0000 C   0  0  0  0  0  0  0  0  0  0  0  0
  1  9  1  0  0  0  0
  2  3  1  0  0  0  0
  3  1  1  0  0  0  0
  3 11  1  6  0  0  0
  4 12  1  0  0  0  0
  4  2  2  0  0  0  0
  5  2  1  0  0  0  0
  6  5  2  0  0  0  0
  7  4  1  0  0  0  0
  8  7  2  0  0  0  0
  8  6  1  0  0  0  0
 10  1  1  0  0  0  0
 12 10  1  0  0  0  0
 13  1  1  0  0  0  0
M  CHG  1   1   1
M  END
$$$$
C[C@@H]1CCCCO1
 OpenBabel07182308452D

  7  7  0  0  0  0  0  0  0  0999 V2000
    0.0195   -0.7930    0.0000 C   0  0  0  0  0  0  0  0  0  0  0  0
    0.8394   -0.7978    0.0000 C   0  0  0  0  0  0  0  0  0  0  0  0
    1.2639   -0.0951    0.0000 C   0  0  0  0  0  0  0  0  0  0  0  0
   -0.3806   -0.0707    0.0000 C   0  0  0  0  0  0  0  0  0  0  0  0
    0.8540    0.6368    0.0000 O   0  0  0  0  0  0  0  0  0  0  0  0
    0.0342    0.6368    0.0000 C   0  0  2  0  0  0  0  0  0  0  0  0
   -0.3659    1.3542    0.0000 C   0  0  0  0  0  0  0  0  0  0  0  0
  2  1  1  0  0  0  0
  3  2  1  0  0  0  0
  3  5  1  0  0  0  0
  4  1  1  0  0  0  0
  5  6  1  0  0  0  0
  6  4  1  0  0  0  0
  6  7  1  1  0  0  0
M  END
$$$$
O[C@@H]1COCC[C@H]1O
 OpenBabel07182308452D

  9  9  0  0  0  0  0  0  0  0999 V2000
    2.9916    0.3587    0.0000 C   0  0  2  0  0  0  0  0  0  0  0  0
    3.4162    1.0614    0.0000 C   0  0  0  0  0  0  0  0  0  0  0  0
    4.2262   -0.3634    0.0000 C   0  0  0  0  0  0  0  0  0  0  0  0
    4.6460    0.3294    0.0000 C   0  0  0  0  0  0  0  0  0  0  0  0
    4.2408    1.0614    0.0000 O   0  0  0  0  0  0  0  0  0  0  0  0
    3.4015   -0.3634    0.0000 C   0  0  1  0  0  0  0  0  0  0  0  0
    2.0936    0.3392    0.0000 O   0  0  0  0  0  0  0  0  0  0  0  0
    2.9770   -1.0711    0.0000 O   0  0  0  0  0  0  0  0  0  0  0  0
    2.0071   -1.0549    0.0000 H   0  0  0  0  0  0  0  0  0  0  0  0
  1  7  1  6  0  0  0
  2  1  1  0  0  0  0
  3  6  1  0  0  0  0
  4  3  1  0  0  0  0
  4  5  1  0  0  0  0
  5  2  1  0  0  0  0
  6  1  1  0  0  0  0
  6  8  1  1  0  0  0
  8  9  1  0  0  0  0
M  END
$$$$
O[C@@H]1C[C@@H](O)[C@@H]([C@H](O1)C)O
 OpenBabel07182308452D

 12 12  0  0  0  0  0  0  0  0999 V2000
   -6.0417   -1.5446    0.0000 C   0  0  0  0  0  0  0  0  0  0  0  0
   -5.6269   -0.8369    0.0000 C   0  0  1  0  0  0  0  0  0  0  0  0
   -6.8616   -1.5446    0.0000 C   0  0  2  0  0  0  0  0  0  0  0  0
   -4.6508   -0.4513    0.0000 O   0  0  0  0  0  0  0  0  0  0  0  0
   -6.0270   -0.1097    0.0000 O   0  0  0  0  0  0  0  0  0  0  0  0
   -6.8469   -0.1097    0.0000 C   0  0  1  0  0  0  0  0  0  0  0  0
   -7.2765   -0.8223    0.0000 C   0  0  1  0  0  0  0  0  0  0  0  0
   -7.2618    0.6075    0.0000 C   0  0  0  0  0  0  0  0  0  0  0  0
   -7.2862   -2.2619    0.0000 O   0  0  0  0  0  0  0  0  0  0  0  0
   -8.1012   -0.8418    0.0000 O   0  0  0  0  0  0  0  0  0  0  0  0
   -8.2561   -2.2514    0.0000 H   0  0  0  0  0  0  0  0  0  0  0  0
   -8.6059   -0.0135    0.0000 H   0  0  0  0  0  0  0  0  0  0  0  0
  1  2  1  0  0  0  0
  2  4  1  6  0  0  0
  3  1  1  0  0  0  0
  3  9  1  1  0  0  0
  5  2  1  0  0  0  0
  6  5  1  0  0  0  0
  6  8  1  1  0  0  0
  7  6  1  0  0  0  0
  7 10  1  6  0  0  0
  7  3  1  0  0  0  0
  9 11  1  0  0  0  0
 10 12  1  0  0  0  0
M  END
$$$$
O[C@@H]1[C@@H](O)CCO[C@H]1O
 OpenBabel07182308452D

 11 11  0  0  0  0  0  0  0  0999 V2000
   -3.8261   -0.4367    0.0000 C   0  0  0  0  0  0  0  0  0  0  0  0
   -3.4063    0.2513    0.0000 C   0  0  0  0  0  0  0  0  0  0  0  0
   -2.1765   -0.4659    0.0000 C   0  0  2  0  0  0  0  0  0  0  0  0
   -2.5914    0.2513    0.0000 O   0  0  0  0  0  0  0  0  0  0  0  0
   -2.6011   -1.1786    0.0000 C   0  0  1  0  0  0  0  0  0  0  0  0
   -3.4210   -1.1639    0.0000 C   0  0  1  0  0  0  0  0  0  0  0  0
   -1.3518   -0.0658    0.0000 O   0  0  0  0  0  0  0  0  0  0  0  0
   -2.1912   -1.8959    0.0000 O   0  0  0  0  0  0  0  0  0  0  0  0
   -3.8408   -1.8813    0.0000 O   0  0  0  0  0  0  0  0  0  0  0  0
   -2.6799   -2.7338    0.0000 H   0  0  0  0  0  0  0  0  0  0  0  0
   -4.8108   -1.8756    0.0000 H   0  0  0  0  0  0  0  0  0  0  0  0
  1  6  1  0  0  0  0
  2  4  1  0  0  0  0
  2  1  1  0  0  0  0
  3  7  1  1  0  0  0
  4  3  1  0  0  0  0
  5  3  1  0  0  0  0
  5  8  1  6  0  0  0
  6  5  1  0  0  0  0
  6  9  1  1  0  0  0
  8 10  1  0  0  0  0
  9 11  1  0  0  0  0
M  END
$$$$
O[C@H]1[C@H](O)CCO[C@@H]1C
 OpenBabel07182308452D

 10 10  0  0  0  0  0  0  0  0999 V2000
    7.6718    0.0219    0.0000 C   0  0  0  0  0  0  0  0  0  0  0  0
    6.4468    0.7247    0.0000 C   0  0  1  0  0  0  0  0  0  0  0  0
    6.8469    0.0073    0.0000 C   0  0  2  0  0  0  0  0  0  0  0  0
    6.8665    1.4324    0.0000 C   0  0  2  0  0  0  0  0  0  0  0  0
    5.4659    0.7393    0.0000 O   0  0  0  0  0  0  0  0  0  0  0  0
    8.1012    0.7100    0.0000 C   0  0  0  0  0  0  0  0  0  0  0  0
    7.6864    1.4324    0.0000 O   0  0  0  0  0  0  0  0  0  0  0  0
    6.4615    2.1547    0.0000 C   0  0  0  0  0  0  0  0  0  0  0  0
    6.4322   -0.7051    0.0000 O   0  0  0  0  0  0  0  0  0  0  0  0
    5.4622   -0.7016    0.0000 H   0  0  0  0  0  0  0  0  0  0  0  0
  1  3  1  0  0  0  0
  1  6  1  0  0  0  0
  2  5  1  6  0  0  0
  3  2  1  0  0  0  0
  3  9  1  1  0  0  0
  4  2  1  0  0  0  0
  4  8  1  1  0  0  0
  6  7  1  0  0  0  0
  7  4  1  0  0  0  0
  9 10  1  0  0  0  0
M  END
$$$$
Oc1cccc2c1cccc2
 OpenBabel07182308452D

 11 12  0  0  0  0  0  0  0  0999 V2000
   -1.0716   -1.8562    0.0000 C   0  0  0  0  0  0  0  0  0  0  0  0
   -0.3571   -1.4437    0.0000 C   0  0  0  0  0  0  0  0  0  0  0  0
   -0.3571   -0.6187    0.0000 C   0  0  0  0  0  0  0  0  0  0  0  0
   -1.7861   -1.4437    0.0000 C   0  0  0  0  0  0  0  0  0  0  0  0
   -1.7861   -0.6187    0.0000 C   0  0  0  0  0  0  0  0  0  0  0  0
   -2.5005   -0.2062    0.0000 C   0  0  0  0  0  0  0  0  0  0  0  0
   -3.2151   -0.6187    0.0000 C   0  0  0  0  0  0  0  0  0  0  0  0
   -3.2151   -1.4437    0.0000 C   0  0  0  0  0  0  0  0  0  0  0  0
   -2.5005   -1.8562    0.0000 C   0  0  0  0  0  0  0  0  0  0  0  0
   -1.0716   -0.2062    0.0000 C   0  0  0  0  0  0  0  0  0  0  0  0
   -1.0716    0.6187    0.0000 O   0  0  0  0  0  0  0  0  0  0  0  0
  1  2  2  0  0  0  0
  2  3  1  0  0  0  0
  4  1  1  0  0  0  0
  5  4  2  0  0  0  0
  6  5  1  0  0  0  0
  6  7  2  0  0  0  0
  7  8  1  0  0  0  0
  8  9  2  0  0  0  0
  9  4  1  0  0  0  0
 10  5  1  0  0  0  0
 10  3  2  0  0  0  0
 10 11  1  0  0  0  0
M  END
$$$$
Cc1nncs1
 OpenBabel07182308452D

  6  6  0  0  0  0  0  0  0  0999 V2000
    3.9433    1.5651    0.0000 S   0  0  0  0  0  0  0  0  0  0  0  0
    3.2758    2.7212    0.0000 N   0  0  0  0  0  0  0  0  0  0  0  0
    4.0828    2.8927    0.0000 N   0  0  0  0  0  0  0  0  0  0  0  0
    3.1895    1.9007    0.0000 C   0  0  0  0  0  0  0  0  0  0  0  0
    4.4953    2.1782    0.0000 C   0  0  0  0  0  0  0  0  0  0  0  0
    5.3158    2.0920    0.0000 C   0  0  0  0  0  0  0  0  0  0  0  0
  1  4  1  0  0  0  0
  1  5  1  0  0  0  0
  2  3  1  0  0  0  0
  2  4  2  0  0  0  0
  3  5  2  0  0  0  0
  5  6  1  0  0  0  0
M  END
$$$$
OC1N2CCN=C2c2c1cccc2
 OpenBabel07182308452D

 14 16  0  0  1  0  0  0  0  0999 V2000
    4.1476    1.1910    0.0000 O   0  0  0  0  0  0  0  0  0  0  0  0
    4.4025   -0.4186    0.0000 N   0  0  0  0  0  0  0  0  0  0  0  0
    3.9905   -1.6828    0.0000 N   0  0  0  0  0  0  0  0  0  0  0  0
    4.1476    0.3660    0.0000 C   0  0  3  0  0  0  0  0  0  0  0  0
    3.3226    0.3660    0.0000 C   0  0  0  0  0  0  0  0  0  0  0  0
    3.7351   -0.9035    0.0000 C   0  0  0  0  0  0  0  0  0  0  0  0
    5.0648   -0.9024    0.0000 C   0  0  0  0  0  0  0  0  0  0  0  0
    3.0676   -0.4186    0.0000 C   0  0  0  0  0  0  0  0  0  0  0  0
    4.8107   -1.6822    0.0000 C   0  0  0  0  0  0  0  0  0  0  0  0
    2.7575    1.0134    0.0000 C   0  0  0  0  0  0  0  0  0  0  0  0
    2.2299   -0.6103    0.0000 C   0  0  0  0  0  0  0  0  0  0  0  0
    1.9156    0.8413    0.0000 C   0  0  0  0  0  0  0  0  0  0  0  0
    1.6500    0.0239    0.0000 C   0  0  0  0  0  0  0  0  0  0  0  0
    4.9876    1.6760    0.0000 H   0  0  0  0  0  0  0  0  0  0  0  0
  1  4  1  0  0  0  0
  1 14  1  0  0  0  0
  2  4  1  0  0  0  0
  2  6  1  0  0  0  0
  2  7  1  0  0  0  0
  3  6  2  0  0  0  0
  3  9  1  0  0  0  0
  4  5  1  0  0  0  0
  5  8  1  0  0  0  0
  5 10  2  0  0  0  0
  6  8  1  0  0  0  0
  7  9  1  0  0  0  0
  8 11  2  0  0  0  0
 10 12  1  0  0  0  0
 11 13  1  0  0  0  0
 12 13  2  0  0  0  0
M  END
$$$$
O[C@H]1[C@H](O)CO[C@H]1O
 OpenBabel07182308452D

 10 10  0  0  1  0  0  0  0  0999 V2000
    5.6655   -0.5564    0.0000 O   0  0  0  0  0  0  0  0  0  0  0  0
    5.2530    1.5382    0.0000 O   0  0  0  0  0  0  0  0  0  0  0  0
    7.1175    0.4986    0.0000 O   0  0  0  0  0  0  0  0  0  0  0  0
    6.8626    1.7931    0.0000 O   0  0  0  0  0  0  0  0  0  0  0  0
    5.6655    0.2686    0.0000 C   0  0  1  0  0  0  0  0  0  0  0  0
    6.3329    0.7536    0.0000 C   0  0  1  0  0  0  0  0  0  0  0  0
    4.9980    0.7536    0.0000 C   0  0  0  0  0  0  0  0  0  0  0  0
    6.0780    1.5382    0.0000 C   0  0  1  0  0  0  0  0  0  0  0  0
    7.3191   -0.4502    0.0000 H   0  0  0  0  0  0  0  0  0  0  0  0
    7.5834    1.1440    0.0000 H   0  0  0  0  0  0  0  0  0  0  0  0
  2  7  1  0  0  0  0
  2  8  1  0  0  0  0
  3  9  1  0  0  0  0
  4 10  1  0  0  0  0
  5  1  1  6  0  0  0
  5  6  1  0  0  0  0
  5  7  1  0  0  0  0
  6  3  1  1  0  0  0
  6  8  1  0  0  0  0
  8  4  1  1  0  0  0
M  END
$$$$
O[C@@H]1[C@@H](O)COC[C@@H]1O
 OpenBabel07182308452D

 12 12  0  0  1  0  0  0  0  0999 V2000
    4.2365   -0.5564    0.0000 O   0  0  0  0  0  0  0  0  0  0  0  0
    5.6655   -2.2064    0.0000 O   0  0  0  0  0  0  0  0  0  0  0  0
    4.2365   -3.0314    0.0000 O   0  0  0  0  0  0  0  0  0  0  0  0
    2.8075   -2.2064    0.0000 O   0  0  0  0  0  0  0  0  0  0  0  0
    4.9509   -0.9689    0.0000 C   0  0  0  0  0  0  0  0  0  0  0  0
    4.9509   -1.7939    0.0000 C   0  0  1  0  0  0  0  0  0  0  0  0
    4.2365   -2.2064    0.0000 C   0  0  2  0  0  0  0  0  0  0  0  0
    3.5220   -1.7939    0.0000 C   0  0  2  0  0  0  0  0  0  0  0  0
    3.5220   -0.9689    0.0000 C   0  0  0  0  0  0  0  0  0  0  0  0
    5.6656   -3.1764    0.0000 H   0  0  0  0  0  0  0  0  0  0  0  0
    3.3965   -3.5164    0.0000 H   0  0  0  0  0  0  0  0  0  0  0  0
    1.9675   -1.7214    0.0000 H   0  0  0  0  0  0  0  0  0  0  0  0
  1  5  1  0  0  0  0
  1  9  1  0  0  0  0
  2 10  1  0  0  0  0
  3 11  1  0  0  0  0
  4 12  1  0  0  0  0
  5  6  1  0  0  0  0
  6  2  1  6  0  0  0
  6  7  1  0  0  0  0
  7  3  1  1  0  0  0
  7  8  1  0  0  0  0
  8  4  1  1  0  0  0
  8  9  1  0  0  0  0
M  END
$$$$
Fc1cncnc1
 OpenBabel07182308452D

  7  7  0  0  1  0  0  0  0  0999 V2000
    4.5079    0.4125    0.0000 F   0  0  0  0  0  0  0  0  0  0  0  0
    3.7934    2.4750    0.0000 N   0  0  0  0  0  0  0  0  0  0  0  0
    5.2223    2.4750    0.0000 N   0  0  0  0  0  0  0  0  0  0  0  0
    3.7934    1.6500    0.0000 C   0  0  0  0  0  0  0  0  0  0  0  0
    4.5079    1.2375    0.0000 C   0  0  0  0  0  0  0  0  0  0  0  0
    5.2223    1.6500    0.0000 C   0  0  0  0  0  0  0  0  0  0  0  0
    4.5079    2.8875    0.0000 C   0  0  0  0  0  0  0  0  0  0  0  0
  1  5  1  0  0  0  0
  2  4  2  0  0  0  0
  2  7  1  0  0  0  0
  3  6  1  0  0  0  0
  3  7  2  0  0  0  0
  4  5  1  0  0  0  0
  5  6  2  0  0  0  0
M  END
$$$$
Cc1nccs1
 OpenBabel07182308452D

  6  6  0  0  0  0  0  0  0  0999 V2000
   -2.0285   -1.2055    0.0000 C   0  0  0  0  0  0  0  0  0  0  0  0
   -2.0285   -0.3773    0.0000 N   0  0  0  0  0  0  0  0  0  0  0  0
   -2.8152   -0.1289    0.0000 C   0  0  0  0  0  0  0  0  0  0  0  0
   -3.3121   -0.7914    0.0000 S   0  0  0  0  0  0  0  0  0  0  0  0
   -2.8152   -1.4538    0.0000 C   0  0  0  0  0  0  0  0  0  0  0  0
   -3.0636    0.6578    0.0000 C   0  0  0  0  0  0  0  0  0  0  0  0
  1  2  1  0  0  0  0
  1  5  2  0  0  0  0
  2  3  2  0  0  0  0
  3  4  1  0  0  0  0
  3  6  1  0  0  0  0
  4  5  1  0  0  0  0
M  END
$$$$
O=C1C=C[C@]2(C(=C1)[C@@H](F)C[C@@H]1[C@]2(F)[C@@H](O)C[C@]2([C@H]1C[C@H]([C@H]2O)C)C)C
 OpenBabel07182308452D

 28 31  0  0  1  0  0  0  0  0999 V2000
   11.7122  -16.9826    0.0000 C   0  0  0  0  0  0  0  0  0  0  0  0
   11.7122  -17.7774    0.0000 C   0  0  0  0  0  0  0  0  0  0  0  0
   12.4233  -18.1957    0.0000 C   0  0  0  0  0  0  0  0  0  0  0  0
   13.0925  -17.7774    0.0000 C   0  0  0  0  0  0  0  0  0  0  0  0
   13.0925  -16.9826    0.0000 C   0  0  2  0  0  0  0  0  0  0  0  0
   12.4233  -16.5643    0.0000 C   0  0  0  0  0  0  0  0  0  0  0  0
   13.8036  -18.1957    0.0000 C   0  0  2  0  0  0  0  0  0  0  0  0
   14.5565  -17.7774    0.0000 C   0  0  0  0  0  0  0  0  0  0  0  0
   14.5565  -16.9826    0.0000 C   0  0  2  0  0  0  0  0  0  0  0  0
   13.8036  -16.5643    0.0000 C   0  0  2  0  0  0  0  0  0  0  0  0
   15.1840  -16.5643    0.0000 C   0  0  1  0  0  0  0  0  0  0  0  0
   15.1840  -15.7696    0.0000 C   0  0  2  0  0  0  0  0  0  0  0  0
   14.5565  -15.3513    0.0000 C   0  0  0  0  0  0  0  0  0  0  0  0
   13.8036  -15.7696    0.0000 C   0  0  2  0  0  0  0  0  0  0  0  0
   16.5643  -16.5643    0.0000 C   0  0  0  0  0  0  0  0  0  0  0  0
   16.5643  -15.7696    0.0000 C   0  0  2  0  0  0  0  0  0  0  0  0
   15.8533  -15.3513    0.0000 C   0  0  1  0  0  0  0  0  0  0  0  0
   11.0011  -18.1957    0.0000 O   0  0  0  0  0  0  0  0  0  0  0  0
   13.0925  -16.1461    0.0000 C   0  0  0  0  0  0  0  0  0  0  0  0
   13.8036  -17.3591    0.0000 F   0  0  0  0  0  0  0  0  0  0  0  0
   14.5565  -16.1461    0.0000 H   0  0  0  0  0  0  0  0  0  0  0  0
   13.0925  -15.3513    0.0000 O   0  0  0  0  0  0  0  0  0  0  0  0
   15.1840  -17.3591    0.0000 H   0  0  0  0  0  0  0  0  0  0  0  0
   15.1840  -14.9330    0.0000 C   0  0  0  0  0  0  0  0  0  0  0  0
   16.6898  -14.8075    0.0000 O   0  0  0  0  0  0  0  0  0  0  0  0
   17.4009  -15.7696    0.0000 C   0  0  0  0  0  0  0  0  0  0  0  0
   13.8036  -19.0323    0.0000 F   0  0  0  0  0  0  0  0  0  0  0  0
   13.1004  -14.3813    0.0000 H   0  0  0  0  0  0  0  0  0  0  0  0
  1  2  1  0  0  0  0
  1  6  2  0  0  0  0
  2  3  1  0  0  0  0
  2 18  2  0  0  0  0
  3  4  2  0  0  0  0
  4  5  1  0  0  0  0
  4  7  1  0  0  0  0
  5  6  1  0  0  0  0
  5 10  1  6  0  0  0
  5 19  1  0  0  0  0
  7  8  1  0  0  0  0
  7 27  1  6  0  0  0
  8  9  1  0  0  0  0
  9 10  1  6  0  0  0
  9 21  1  0  0  0  0
 10 20  1  6  0  0  0
 11  9  1  1  0  0  0
 11 15  1  0  0  0  0
 11 23  1  0  0  0  0
 12 11  1  1  0  0  0
 12 13  1  0  0  0  0
 12 24  1  0  0  0  0
 13 14  1  0  0  0  0
 14 10  1  1  0  0  0
 14 22  1  0  0  0  0
 15 16  1  0  0  0  0
 16 17  1  0  0  0  0
 16 26  1  6  0  0  0
 17 12  1  6  0  0  0
 17 25  1  0  0  0  0
 22 28  1  0  0  0  0
M  END
$$$$
SC=O
 OpenBabel07182308452D

  3  2  0  0  1  0  0  0  0  0999 V2000
   15.8533  -14.5147    0.0000 C   0  0  0  0  0  0  0  0  0  0  0  0
   16.6062  -14.0964    0.0000 O   0  0  0  0  0  0  0  0  0  0  0  0
   15.1003  -14.0964    0.0000 S   0  0  0  0  0  0  0  0  0  0  0  0
  1  2  2  0  0  0  0
  1  3  1  0  0  0  0
M  END
$$$$
CF
 OpenBabel07182308452D

  2  1  0  0  1  0  0  0  0  0999 V2000
   14.3892  -14.5147    0.0000 C   0  0  0  0  0  0  0  0  0  0  0  0
   13.6781  -14.0964    0.0000 F   0  0  0  0  0  0  0  0  0  0  0  0
  1  2  1  0  0  0  0
M  END
$$$$
N[C@@H]1CN(C)[C@H]2C(=C1)c1cccc3c1c(C2)c[nH]3
 OpenBabel07182308452D

 21 24  0  0  1  0  0  0  0  0999 V2000
    5.9985    0.4769    0.0000 N   0  0  0  0  0  0  0  0  0  0  0  0
    3.7976    0.8924    0.0000 N   0  0  0  0  0  0  0  0  0  0  0  0
    6.9735   -2.9186    0.0000 N   0  0  0  0  0  0  0  0  0  0  0  0
    5.9852   -0.3821    0.0000 C   0  0  1  0  0  0  0  0  0  0  0  0
    5.2709   -0.7946    0.0000 C   0  0  0  0  0  0  0  0  0  0  0  0
    6.6997   -0.7946    0.0000 C   0  0  0  0  0  0  0  0  0  0  0  0
    4.5136    0.4826    0.0000 C   0  0  2  0  0  0  0  0  0  0  0  0
    5.2578    0.9124    0.0000 C   0  0  0  0  0  0  0  0  0  0  0  0
    6.6997   -1.6195    0.0000 C   0  0  0  0  0  0  0  0  0  0  0  0
    5.2709   -1.6195    0.0000 C   0  0  0  0  0  0  0  0  0  0  0  0
    5.9852   -2.0319    0.0000 C   0  0  0  0  0  0  0  0  0  0  0  0
    4.5202   -0.3765    0.0000 C   0  0  0  0  0  0  0  0  0  0  0  0
    5.9985   -2.8911    0.0000 C   0  0  0  0  0  0  0  0  0  0  0  0
    6.7177    0.8812    0.0000 C   0  0  0  0  0  0  0  0  0  0  0  0
    7.3076   -2.1698    0.0000 C   0  0  0  0  0  0  0  0  0  0  0  0
    4.5202   -2.0375    0.0000 C   0  0  0  0  0  0  0  0  0  0  0  0
    5.2578   -3.3264    0.0000 C   0  0  0  0  0  0  0  0  0  0  0  0
    4.5136   -2.8968    0.0000 C   0  0  0  0  0  0  0  0  0  0  0  0
    6.5593   -0.0567    0.0000 H   0  0  0  0  0  0  0  0  0  0  0  0
    2.9469    0.3969    0.0000 H   0  0  0  0  0  0  0  0  0  0  0  0
    7.4977   -3.7520    0.0000 H   0  0  0  0  0  0  0  0  0  0  0  0
  1  4  1  0  0  0  0
  1  8  1  0  0  0  0
  1 14  1  0  0  0  0
  2 20  1  0  0  0  0
  3 13  1  0  0  0  0
  3 15  1  0  0  0  0
  3 21  1  0  0  0  0
  4  5  1  0  0  0  0
  4  6  1  0  0  0  0
  4 19  1  1  0  0  0
  5 10  1  0  0  0  0
  5 12  2  0  0  0  0
  6  9  1  0  0  0  0
  7  2  1  6  0  0  0
  7  8  1  0  0  0  0
  7 12  1  0  0  0  0
  9 11  1  0  0  0  0
  9 15  2  0  0  0  0
 10 11  2  0  0  0  0
 10 16  1  0  0  0  0
 11 13  1  0  0  0  0
 13 17  2  0  0  0  0
 16 18  2  0  0  0  0
 17 18  1  0  0  0  0
M  END
$$$$
C1COc2c(O1)cccc2
 OpenBabel07182308452D

 10 11  0  0  1  0  0  0  0  0999 V2000
    3.8490    1.5714    0.0000 O   0  0  0  0  0  0  0  0  0  0  0  0
    3.8490   -0.0784    0.0000 O   0  0  0  0  0  0  0  0  0  0  0  0
    4.5634    1.1589    0.0000 C   0  0  0  0  0  0  0  0  0  0  0  0
    4.5634    0.3341    0.0000 C   0  0  0  0  0  0  0  0  0  0  0  0
    3.1346    1.1589    0.0000 C   0  0  0  0  0  0  0  0  0  0  0  0
    3.1346    0.3341    0.0000 C   0  0  0  0  0  0  0  0  0  0  0  0
    2.3972    1.6001    0.0000 C   0  0  0  0  0  0  0  0  0  0  0  0
    2.3972   -0.1070    0.0000 C   0  0  0  0  0  0  0  0  0  0  0  0
    1.6498    1.1761    0.0000 C   0  0  0  0  0  0  0  0  0  0  0  0
    1.6498    0.3170    0.0000 C   0  0  0  0  0  0  0  0  0  0  0  0
  1  3  1  0  0  0  0
  1  5  1  0  0  0  0
  2  4  1  0  0  0  0
  2  6  1  0  0  0  0
  3  4  1  0  0  0  0
  5  6  1  0  0  0  0
  5  7  2  0  0  0  0
  6  8  2  0  0  0  0
  7  9  1  0  0  0  0
  8 10  1  0  0  0  0
  9 10  2  0  0  0  0
M  END
$$$$
O=C1C=C[C@]2(C(=C1)[C@@H](F)C[C@@H]1[C@]2(F)[C@@H](O)C[C@]2([C@H]1C[C@@H]1C2OC(O1)(C)C)C)C
 OpenBabel07182308452D

 32 36  0  0  0  0  0  0  0  0999 V2000
   -1.4573   -0.7640    0.0000 C   0  0  2  0  0  0  0  0  0  0  0  0
   -1.4573   -1.5846    0.0000 C   0  0  0  0  0  0  0  0  0  0  0  0
   -2.1648   -0.3395    0.0000 C   0  0  0  0  0  0  0  0  0  0  0  0
   -2.1648   -1.9808    0.0000 C   0  0  0  0  0  0  0  0  0  0  0  0
   -2.9004   -0.7640    0.0000 C   0  0  0  0  0  0  0  0  0  0  0  0
   -2.9004   -1.5846    0.0000 C   0  0  0  0  0  0  0  0  0  0  0  0
   -0.7215   -0.3395    0.0000 C   0  0  2  0  0  0  0  0  0  0  0  0
   -0.0141   -0.7640    0.0000 C   0  0  1  0  0  0  0  0  0  0  0  0
   -0.7215   -1.9808    0.0000 C   0  0  2  0  0  0  0  0  0  0  0  0
   -0.0141   -1.5846    0.0000 C   0  0  0  0  0  0  0  0  0  0  0  0
   -0.7215    0.5093    0.0000 C   0  0  2  0  0  0  0  0  0  0  0  0
   -0.0141    0.9054    0.0000 C   0  0  0  0  0  0  0  0  0  0  0  0
    0.6933   -0.3395    0.0000 C   0  0  1  0  0  0  0  0  0  0  0  0
    0.6933    0.5093    0.0000 C   0  0  1  0  0  0  0  0  0  0  0  0
    1.4856   -0.5942    0.0000 C   0  0  0  0  0  0  0  0  0  0  0  0
    1.9666    0.0848    0.0000 C   0  0  2  0  0  0  0  0  0  0  0  0
    1.4856    0.7640    0.0000 C   0  0  3  0  0  0  0  0  0  0  0  0
    2.7872    0.3395    0.0000 O   0  0  0  0  0  0  0  0  0  0  0  0
    2.7872    1.1601    0.0000 C   0  0  0  0  0  0  0  0  0  0  0  0
    1.9666    1.4148    0.0000 O   0  0  0  0  0  0  0  0  0  0  0  0
   -3.6079   -1.9808    0.0000 O   0  0  0  0  0  0  0  0  0  0  0  0
   -0.7215   -2.8297    0.0000 F   0  0  0  0  0  0  0  0  0  0  0  0
   -1.4573    0.0848    0.0000 C   0  0  0  0  0  0  0  0  0  0  0  0
   -0.7215   -1.1602    0.0000 F   0  0  0  0  0  0  0  0  0  0  0  0
   -1.4573    0.9054    0.0000 O   0  0  0  0  0  0  0  0  0  0  0  0
   -0.0141    0.0848    0.0000 H   0  0  0  0  0  0  0  0  0  0  0  0
    0.6933   -1.1602    0.0000 H   0  0  0  0  0  0  0  0  0  0  0  0
    0.6933    1.3299    0.0000 C   0  0  0  0  0  0  0  0  0  0  0  0
    3.1834    1.8676    0.0000 C   0  0  0  0  0  0  0  0  0  0  0  0
    3.6079    1.1601    0.0000 C   0  0  0  0  0  0  0  0  0  0  0  0
    1.9983    0.7926    0.0000 H   0  0  0  0  0  0  0  0  0  0  0  0
   -1.4862    1.8750    0.0000 H   0  0  0  0  0  0  0  0  0  0  0  0
  1  7  1  6  0  0  0
  1 23  1  0  0  0  0
  2  1  1  0  0  0  0
  3  1  1  0  0  0  0
  4  2  2  0  0  0  0
  5  3  2  0  0  0  0
  6  4  1  0  0  0  0
  6  5  1  0  0  0  0
  7  8  1  1  0  0  0
  7 24  1  0  0  0  0
  8 13  1  6  0  0  0
  8 26  1  0  0  0  0
  9  2  1  0  0  0  0
  9 22  1  6  0  0  0
 10  8  1  0  0  0  0
 10  9  1  0  0  0  0
 11  7  1  1  0  0  0
 11 25  1  0  0  0  0
 12 11  1  0  0  0  0
 13 14  1  6  0  0  0
 13 27  1  0  0  0  0
 14 12  1  0  0  0  0
 14 28  1  1  0  0  0
 15 13  1  0  0  0  0
 16 15  1  0  0  0  0
 16 31  1  1  0  0  0
 17 14  1  0  0  0  0
 17 16  1  0  0  0  0
 18 16  1  0  0  0  0
 19 18  1  0  0  0  0
 20 17  1  0  0  0  0
 20 19  1  0  0  0  0
 21  6  2  0  0  0  0
 25 32  1  0  0  0  0
 29 19  1  0  0  0  0
 30 19  1  0  0  0  0
M  END
$$$$
O=C1CC(C(=O)N1)C
 OpenBabel07182308452D

  9  9  0  0  1  0  0  0  0  0999 V2000
    4.5544   -0.6800    0.0000 O   0  0  0  0  0  0  0  0  0  0  0  0
    1.6501   -0.6800    0.0000 O   0  0  0  0  0  0  0  0  0  0  0  0
    3.1023   -0.9100    0.0000 N   0  0  0  0  0  0  0  0  0  0  0  0
    3.5148    0.3596    0.0000 C   0  0  3  0  0  0  0  0  0  0  0  0
    2.6897    0.3596    0.0000 C   0  0  0  0  0  0  0  0  0  0  0  0
    3.7697   -0.4251    0.0000 C   0  0  0  0  0  0  0  0  0  0  0  0
    3.5148    1.1846    0.0000 C   0  0  0  0  0  0  0  0  0  0  0  0
    2.4348   -0.4251    0.0000 C   0  0  0  0  0  0  0  0  0  0  0  0
    3.1023   -1.8945    0.0000 H   0  0  0  0  0  0  0  0  0  0  0  0
  1  6  2  0  0  0  0
  2  8  2  0  0  0  0
  3  6  1  0  0  0  0
  3  8  1  0  0  0  0
  3  9  1  0  0  0  0
  4  5  1  0  0  0  0
  4  6  1  0  0  0  0
  4  7  1  0  0  0  0
  5  8  1  0  0  0  0
M  END
$$$$
Nc1cnc(c(n1)N)Cl
 OpenBabel07182308452D

 13 13  0  0  0  0  0  0  0  0999 V2000
   -1.0716    0.4125    0.0000 N   0  0  0  0  0  0  0  0  0  0  0  0
   -1.0716   -1.2374    0.0000 N   0  0  0  0  0  0  0  0  0  0  0  0
   -1.7862   -0.8250    0.0000 C   0  0  0  0  0  0  0  0  0  0  0  0
   -2.5006   -1.2374    0.0000 N   0  0  0  0  0  0  0  0  0  0  0  0
   -0.3572   -0.8250    0.0000 C   0  0  0  0  0  0  0  0  0  0  0  0
    0.3571   -1.2374    0.0000 N   0  0  0  0  0  0  0  0  0  0  0  0
   -1.7862    0.0000    0.0000 C   0  0  0  0  0  0  0  0  0  0  0  0
   -2.5006    0.4125    0.0000 Cl  0  0  0  0  0  0  0  0  0  0  0  0
   -0.3572    0.0000    0.0000 C   0  0  0  0  0  0  0  0  0  0  0  0
   -3.3532   -0.7451    0.0000 H   0  0  0  0  0  0  0  0  0  0  0  0
   -2.5007   -2.2219    0.0000 H   0  0  0  0  0  0  0  0  0  0  0  0
    0.3571   -2.2219    0.0000 H   0  0  0  0  0  0  0  0  0  0  0  0
    1.2097   -0.7451    0.0000 H   0  0  0  0  0  0  0  0  0  0  0  0
  1  7  1  0  0  0  0
  1  9  2  0  0  0  0
  2  5  2  0  0  0  0
  3  2  1  0  0  0  0
  3  4  1  0  0  0  0
  4 10  1  0  0  0  0
  4 11  1  0  0  0  0
  5  9  1  0  0  0  0
  5  6  1  0  0  0  0
  6 12  1  0  0  0  0
  6 13  1  0  0  0  0
  7  3  2  0  0  0  0
  7  8  1  0  0  0  0
M  END
$$$$
OC1=CC(=O)[C@@]2([C@H](C1)[C@@H](O)[C@H]1C(=C2O)C(=O)c2c([C@@]1(C)O)cccc2O)O
 OpenBabel07182308452D

 35 38  0  0  0  0  0  0  0  0999 V2000
    0.6948   -0.1983    0.0000 C   0  0  1  0  0  0  0  0  0  0  0  0
    0.7048    0.6038    0.0000 C   0  0  2  0  0  0  0  0  0  0  0  0
   -0.0398   -0.6034    0.0000 C   0  0  2  0  0  0  0  0  0  0  0  0
    1.4168   -0.6403    0.0000 C   0  0  0  0  0  0  0  0  0  0  0  0
   -0.0005    1.0216    0.0000 C   0  0  0  0  0  0  0  0  0  0  0  0
    1.4548    1.0458    0.0000 C   0  0  0  0  0  0  0  0  0  0  0  0
    0.7048    1.4289    0.0000 O   0  0  0  0  0  0  0  0  0  0  0  0
   -0.7495   -0.1971    0.0000 C   0  0  1  0  0  0  0  0  0  0  0  0
   -0.0398   -1.4283    0.0000 O   0  0  0  0  0  0  0  0  0  0  0  0
    2.1632   -0.2198    0.0000 C   0  0  0  0  0  0  0  0  0  0  0  0
   -0.7425    0.6279    0.0000 C   0  0  0  0  0  0  0  0  0  0  0  0
   -0.0005    1.8465    0.0000 O   0  0  0  0  0  0  0  0  0  0  0  0
    2.1697    0.5922    0.0000 C   0  0  0  0  0  0  0  0  0  0  0  0
    1.4548    1.8708    0.0000 O   0  0  0  0  0  0  0  0  0  0  0  0
   -1.4708   -0.6022    0.0000 C   0  0  2  0  0  0  0  0  0  0  0  0
    2.8790   -0.6324    0.0000 O   0  0  0  0  0  0  0  0  0  0  0  0
   -1.4412    1.0533    0.0000 C   0  0  0  0  0  0  0  0  0  0  0  0
   -2.1746   -0.1843    0.0000 C   0  0  0  0  0  0  0  0  0  0  0  0
   -2.1066   -1.1256    0.0000 C   0  0  0  0  0  0  0  0  0  0  0  0
   -2.1746    0.6407    0.0000 C   0  0  0  0  0  0  0  0  0  0  0  0
   -1.4412    1.8783    0.0000 O   0  0  0  0  0  0  0  0  0  0  0  0
   -2.8910   -0.5852    0.0000 C   0  0  0  0  0  0  0  0  0  0  0  0
   -2.8594    1.0533    0.0000 C   0  0  0  0  0  0  0  0  0  0  0  0
   -3.6053   -0.1740    0.0000 C   0  0  0  0  0  0  0  0  0  0  0  0
   -3.6053    0.6523    0.0000 C   0  0  0  0  0  0  0  0  0  0  0  0
   -2.8594    1.8782    0.0000 O   0  0  0  0  0  0  0  0  0  0  0  0
    0.6948   -1.0228    0.0000 H   0  0  0  0  0  0  0  0  0  0  0  0
   -0.7495   -1.0221    0.0000 H   0  0  0  0  0  0  0  0  0  0  0  0
   -1.2603   -1.3979    0.0000 O   0  0  0  0  0  0  0  0  0  0  0  0
    1.5448    1.9139    0.0000 H   0  0  0  0  0  0  0  0  0  0  0  0
   -0.8798   -1.9133    0.0000 H   0  0  0  0  0  0  0  0  0  0  0  0
    0.8110    2.3150    0.0000 H   0  0  0  0  0  0  0  0  0  0  0  0
    2.8797   -1.5694    0.0000 H   0  0  0  0  0  0  0  0  0  0  0  0
   -2.0479    2.3467    0.0000 H   0  0  0  0  0  0  0  0  0  0  0  0
   -1.9484   -2.0816    0.0000 H   0  0  0  0  0  0  0  0  0  0  0  0
  1  2  1  1  0  0  0
  1  4  1  0  0  0  0
  1 27  1  0  0  0  0
  2  5  1  0  0  0  0
  2  6  1  0  0  0  0
  2  7  1  1  0  0  0
  3  1  1  1  0  0  0
  3  8  1  0  0  0  0
  3  9  1  0  0  0  0
  4 10  1  0  0  0  0
  5 11  2  0  0  0  0
  5 12  1  0  0  0  0
  6 13  1  0  0  0  0
  6 14  2  0  0  0  0
  7 30  1  0  0  0  0
  8 15  1  6  0  0  0
  8 11  1  0  0  0  0
  8 28  1  0  0  0  0
  9 31  1  0  0  0  0
 10 16  1  0  0  0  0
 10 13  2  0  0  0  0
 11 17  1  0  0  0  0
 12 32  1  0  0  0  0
 15 18  1  0  0  0  0
 15 19  1  1  0  0  0
 15 29  1  0  0  0  0
 16 33  1  0  0  0  0
 17 20  1  0  0  0  0
 17 21  2  0  0  0  0
 18 22  1  0  0  0  0
 18 20  2  0  0  0  0
 20 23  1  0  0  0  0
 22 24  2  0  0  0  0
 23 25  2  0  0  0  0
 23 26  1  0  0  0  0
 24 25  1  0  0  0  0
 26 34  1  0  0  0  0
 29 35  1  0  0  0  0
M  END
$$$$
CN1CCN(C)CCN(CCN(CC1)C)C
 OpenBabel07182308452D

 16 16  0  0  1  0  0  0  0  0999 V2000
    6.1714    1.0289    0.0000 N   0  0  0  0  0  0  0  0  0  0  0  0
    6.0946   -1.1192    0.0000 N   0  0  0  0  0  0  0  0  0  0  0  0
    3.9174    1.0289    0.0000 N   0  0  0  0  0  0  0  0  0  0  0  0
    3.9174   -0.9629    0.0000 N   0  0  0  0  0  0  0  0  0  0  0  0
    5.4569    1.4414    0.0000 C   0  0  0  0  0  0  0  0  0  0  0  0
    6.1714    0.2039    0.0000 C   0  0  0  0  0  0  0  0  0  0  0  0
    6.5071   -0.4047    0.0000 C   0  0  0  0  0  0  0  0  0  0  0  0
    4.7425    1.0289    0.0000 C   0  0  0  0  0  0  0  0  0  0  0  0
    5.2977   -1.3327    0.0000 C   0  0  0  0  0  0  0  0  0  0  0  0
    3.3341    0.4455    0.0000 C   0  0  0  0  0  0  0  0  0  0  0  0
    4.7143   -0.7494    0.0000 C   0  0  0  0  0  0  0  0  0  0  0  0
    3.3341   -0.3795    0.0000 C   0  0  0  0  0  0  0  0  0  0  0  0
    6.8858    1.4414    0.0000 C   0  0  0  0  0  0  0  0  0  0  0  0
    6.5968   -1.7737    0.0000 C   0  0  0  0  0  0  0  0  0  0  0  0
    3.6017    1.7911    0.0000 C   0  0  0  0  0  0  0  0  0  0  0  0
    3.7038   -1.7598    0.0000 C   0  0  0  0  0  0  0  0  0  0  0  0
  1  5  1  0  0  0  0
  1  6  1  0  0  0  0
  1 13  1  0  0  0  0
  2  7  1  0  0  0  0
  2  9  1  0  0  0  0
  2 14  1  0  0  0  0
  3  8  1  0  0  0  0
  3 10  1  0  0  0  0
  3 15  1  0  0  0  0
  4 11  1  0  0  0  0
  4 12  1  0  0  0  0
  4 16  1  0  0  0  0
  5  8  1  0  0  0  0
  6  7  1  0  0  0  0
  9 11  1  0  0  0  0
 10 12  1  0  0  0  0
M  END
$$$$
O=C1CC(=O)NC(=S)N1
 OpenBabel07182308452D

 11 11  0  0  1  0  0  0  0  0999 V2000
    3.0791   -2.6665    0.0000 S   0  0  0  0  0  0  0  0  0  0  0  0
    4.5080   -0.1915    0.0000 O   0  0  0  0  0  0  0  0  0  0  0  0
    1.6500   -0.1915    0.0000 O   0  0  0  0  0  0  0  0  0  0  0  0
    3.7935   -1.4290    0.0000 N   0  0  0  0  0  0  0  0  0  0  0  0
    2.3645   -1.4290    0.0000 N   0  0  0  0  0  0  0  0  0  0  0  0
    3.0791   -0.1915    0.0000 C   0  0  0  0  0  0  0  0  0  0  0  0
    3.7935   -0.6040    0.0000 C   0  0  0  0  0  0  0  0  0  0  0  0
    2.3645   -0.6040    0.0000 C   0  0  0  0  0  0  0  0  0  0  0  0
    3.0791   -1.8415    0.0000 C   0  0  0  0  0  0  0  0  0  0  0  0
    4.6461   -1.9212    0.0000 H   0  0  0  0  0  0  0  0  0  0  0  0
    1.5119   -1.9213    0.0000 H   0  0  0  0  0  0  0  0  0  0  0  0
  1  9  2  0  0  0  0
  2  7  2  0  0  0  0
  3  8  2  0  0  0  0
  4  7  1  0  0  0  0
  4  9  1  0  0  0  0
  4 10  1  0  0  0  0
  5  8  1  0  0  0  0
  5  9  1  0  0  0  0
  5 11  1  0  0  0  0
  6  7  1  0  0  0  0
  6  8  1  0  0  0  0
M  END
$$$$
O[C@H]1CC[C@H]([C@@H](O1)C)O
 OpenBabel07182308452D

 10 10  0  0  0  0  0  0  0  0999 V2000
   -4.5454   -2.2424    0.0000 C   0  0  2  0  0  0  0  0  0  0  0  0
   -4.9526   -1.5297    0.0000 O   0  0  0  0  0  0  0  0  0  0  0  0
   -4.9526   -2.9551    0.0000 C   0  0  0  0  0  0  0  0  0  0  0  0
   -6.1938   -2.2424    0.0000 C   0  0  2  0  0  0  0  0  0  0  0  0
   -5.7767   -2.9551    0.0000 C   0  0  0  0  0  0  0  0  0  0  0  0
   -5.7767   -1.5297    0.0000 C   0  0  2  0  0  0  0  0  0  0  0  0
   -3.8326   -1.8255    0.0000 O   0  0  0  0  0  0  0  0  0  0  0  0
   -7.0181   -2.2424    0.0000 O   0  0  0  0  0  0  0  0  0  0  0  0
   -6.1889   -0.8120    0.0000 C   0  0  0  0  0  0  0  0  0  0  0  0
   -7.5031   -1.4024    0.0000 H   0  0  0  0  0  0  0  0  0  0  0  0
  1  7  1  1  0  0  0
  2  1  1  0  0  0  0
  3  1  1  0  0  0  0
  4  6  1  0  0  0  0
  4  8  1  1  0  0  0
  4  5  1  0  0  0  0
  5  3  1  0  0  0  0
  6  2  1  0  0  0  0
  6  9  1  6  0  0  0
  8 10  1  0  0  0  0
M  END
$$$$
C[C@H]1CCC[C@@H](O1)O
 OpenBabel07182308452D

  8  8  0  0  0  0  0  0  0  0999 V2000
   -3.0132   -1.8206    0.0000 C   0  0  0  0  0  0  0  0  0  0  0  0
   -1.3600   -1.8206    0.0000 C   0  0  2  0  0  0  0  0  0  0  0  0
   -1.7721   -1.1079    0.0000 O   0  0  0  0  0  0  0  0  0  0  0  0
   -1.7721   -2.5333    0.0000 C   0  0  0  0  0  0  0  0  0  0  0  0
   -2.5963   -2.5333    0.0000 C   0  0  0  0  0  0  0  0  0  0  0  0
   -2.5963   -1.1079    0.0000 C   0  0  1  0  0  0  0  0  0  0  0  0
   -0.6522   -1.4036    0.0000 O   0  0  0  0  0  0  0  0  0  0  0  0
   -3.0085   -0.3951    0.0000 C   0  0  0  0  0  0  0  0  0  0  0  0
  1  6  1  0  0  0  0
  1  5  1  0  0  0  0
  2  7  1  1  0  0  0
  3  2  1  0  0  0  0
  4  2  1  0  0  0  0
  5  4  1  0  0  0  0
  6  3  1  0  0  0  0
  6  8  1  6  0  0  0
M  END
$$$$
C[C@H]1CC[C@@]2(OC1)C[C@@H]1C[C@H](O2)C/C=C(\C)/C[C@@H](C)/C=C/C=C\2/[C@]3([C@H](C(=O)O1)C=C(C)[C@H]([C@H]3OC2)O)O
 OpenBabel07182308452D

 44 48  0  0  0  0  0  0  0  0999 V2000
    3.0230   -5.2193    0.0000 C   0  0  2  0  0  0  0  0  0  0  0  0
    2.2859   -5.6605    0.0000 C   0  0  1  0  0  0  0  0  0  0  0  0
    2.2859   -6.4846    0.0000 C   0  0  2  0  0  0  0  0  0  0  0  0
    3.0084   -4.3708    0.0000 C   0  0  0  0  0  0  0  0  0  0  0  0
    3.7017   -5.6169    0.0000 C   0  0  0  0  0  0  0  0  0  0  0  0
    4.4677   -1.9078    0.0000 C   0  0  2  0  0  0  0  0  0  0  0  0
    3.7017   -6.4846    0.0000 C   0  0  0  0  0  0  0  0  0  0  0  0
    1.4908   -6.7708    0.0000 O   0  0  0  0  0  0  0  0  0  0  0  0
    1.4908   -5.4278    0.0000 C   0  0  0  0  0  0  0  0  0  0  0  0
    3.0230   -6.8823    0.0000 C   0  0  1  0  0  0  0  0  0  0  0  0
    5.2193   -2.3442    0.0000 O   0  0  0  0  0  0  0  0  0  0  0  0
    3.7017   -3.9927    0.0000 O   0  0  0  0  0  0  0  0  0  0  0  0
    0.1138   -1.8545    0.0000 C   0  0  0  0  0  0  0  0  0  0  0  0
    4.4677   -2.7466    0.0000 C   0  0  0  0  0  0  0  0  0  0  0  0
    3.7258   -1.4956    0.0000 O   0  0  0  0  0  0  0  0  0  0  0  0
    5.8544   -1.9273    0.0000 C   0  0  0  0  0  0  0  0  0  0  0  0
    3.7017   -3.1537    0.0000 C   0  0  2  0  0  0  0  0  0  0  0  0
    0.8557   -1.4472    0.0000 C   0  0  0  0  0  0  0  0  0  0  0  0
    1.5731   -1.8545    0.0000 C   0  0  0  0  0  0  0  0  0  0  0  0
    1.0157   -6.0436    0.0000 C   0  0  0  0  0  0  0  0  0  0  0  0
    1.4908   -4.5890    0.0000 C   0  0  0  0  0  0  0  0  0  0  0  0
    2.2859   -3.9490    0.0000 O   0  0  0  0  0  0  0  0  0  0  0  0
    0.9381   -4.1817    0.0000 C   0  0  0  0  0  0  0  0  0  0  0  0
    3.0230   -2.7369    0.0000 C   0  0  0  0  0  0  0  0  0  0  0  0
    3.0230   -1.8691    0.0000 C   0  0  1  0  0  0  0  0  0  0  0  0
    0.1138   -2.7466    0.0000 C   0  0  2  0  0  0  0  0  0  0  0  0
    5.8544   -1.1466    0.0000 C   0  0  2  0  0  0  0  0  0  0  0  0
    0.9381   -3.2847    0.0000 C   0  0  0  0  0  0  0  0  0  0  0  0
    2.3005   -4.8217    0.0000 O   0  0  0  0  0  0  0  0  0  0  0  0
    4.4775   -1.1466    0.0000 C   0  0  0  0  0  0  0  0  0  0  0  0
    5.2193   -0.7297    0.0000 C   0  0  0  0  0  0  0  0  0  0  0  0
    2.3005   -1.4472    0.0000 C   0  0  0  0  0  0  0  0  0  0  0  0
    3.0374   -7.7064    0.0000 O   0  0  0  0  0  0  0  0  0  0  0  0
    4.3999   -6.9164    0.0000 C   0  0  0  0  0  0  0  0  0  0  0  0
    0.8557   -0.6278    0.0000 C   0  0  0  0  0  0  0  0  0  0  0  0
   -0.6037   -3.1537    0.0000 C   0  0  0  0  0  0  0  0  0  0  0  0
    6.5526   -0.7152    0.0000 C   0  0  0  0  0  0  0  0  0  0  0  0
    3.0463   -0.7057    0.0000 H   0  0  0  0  0  0  0  0  0  0  0  0
    4.6991   -3.7531    0.0000 H   0  0  0  0  0  0  0  0  0  0  0  0
    5.8875   -3.0904    0.0000 H   0  0  0  0  0  0  0  0  0  0  0  0
    2.1991   -7.6451    0.0000 H   0  0  0  0  0  0  0  0  0  0  0  0
    4.0275   -4.6320    0.0000 H   0  0  0  0  0  0  0  0  0  0  0  0
    3.1489   -4.3514    0.0000 H   0  0  0  0  0  0  0  0  0  0  0  0
    2.2060   -8.2060    0.0000 H   0  0  0  0  0  0  0  0  0  0  0  0
  1  2  1  1  0  0  0
  1  4  1  0  0  0  0
  1 42  1  0  0  0  0
  2  3  1  6  0  0  0
  2 29  1  0  0  0  0
  3 41  1  6  0  0  0
  5  1  1  0  0  0  0
  6 14  1  1  0  0  0
  6 11  1  0  0  0  0
  7  5  2  0  0  0  0
  8  3  1  0  0  0  0
  9  2  1  0  0  0  0
 10  7  1  0  0  0  0
 10 33  1  0  0  0  0
 10  3  1  1  0  0  0
 12  4  1  0  0  0  0
 13 26  1  0  0  0  0
 14 17  1  0  0  0  0
 15 25  1  0  0  0  0
 15  6  1  0  0  0  0
 16 11  1  0  0  0  0
 16 40  1  0  0  0  0
 17 12  1  0  0  0  0
 17 39  1  6  0  0  0
 18 19  2  0  0  0  0
 18 13  1  0  0  0  0
 19 32  1  0  0  0  0
 20  9  1  0  0  0  0
 20  8  1  0  0  0  0
 21  9  2  0  0  0  0
 22  4  2  0  0  0  0
 23 21  1  0  0  0  0
 24 17  1  0  0  0  0
 25 24  1  0  0  0  0
 25 32  1  0  0  0  0
 25 38  1  6  0  0  0
 26 28  1  0  0  0  0
 26 36  1  6  0  0  0
 27 31  1  0  0  0  0
 27 37  1  6  0  0  0
 27 16  1  0  0  0  0
 28 23  2  0  0  0  0
 29 43  1  0  0  0  0
 30  6  1  0  0  0  0
 31 30  1  0  0  0  0
 33 44  1  0  0  0  0
 34  7  1  0  0  0  0
 35 18  1  0  0  0  0
M  END
$$$$
O=C1CC[C@]2(C(=C1)[C@@H](C)C[C@@H]1[C@@H]2CC[C@]2([C@H]1CC[C@H]2O)C)C
 OpenBabel07182308452D

 25 28  0  0  1  0  0  0  0  0999 V2000
    1.8036   -0.1138    0.0000 C   0  0  0  0  0  0  0  0  0  0  0  0
    0.3045   -1.0964    0.0000 C   0  0  0  0  0  0  0  0  0  0  0  0
    1.8036    1.2211    0.0000 C   0  0  2  0  0  0  0  0  0  0  0  0
    0.3045    1.3786    0.0000 C   0  0  0  0  0  0  0  0  0  0  0  0
    2.2885    0.5536    0.0000 C   0  0  0  0  0  0  0  0  0  0  0  0
   -1.1245   -0.2714    0.0000 C   0  0  2  0  0  0  0  0  0  0  0  0
   -0.4100    0.9661    0.0000 C   0  0  0  0  0  0  0  0  0  0  0  0
   -0.4100   -1.5089    0.0000 C   0  0  1  0  0  0  0  0  0  0  0  0
   -1.1245   -1.0964    0.0000 C   0  0  0  0  0  0  0  0  0  0  0  0
   -1.8390    0.1411    0.0000 C   0  0  0  0  0  0  0  0  0  0  0  0
   -1.8390   -1.5089    0.0000 C   0  0  0  0  0  0  0  0  0  0  0  0
   -2.5534   -0.2714    0.0000 C   0  0  0  0  0  0  0  0  0  0  0  0
    0.3045   -0.2714    0.0000 C   0  0  2  0  0  0  0  0  0  0  0  0
    0.3045    0.5536    0.0000 H   0  0  0  0  0  0  0  0  0  0  0  0
   -0.4100    0.1411    0.0000 C   0  0  1  0  0  0  0  0  0  0  0  0
   -0.4100   -0.6839    0.0000 H   0  0  0  0  0  0  0  0  0  0  0  0
    1.0189    0.9661    0.0000 C   0  0  2  0  0  0  0  0  0  0  0  0
    1.0189    1.7911    0.0000 C   0  0  0  0  0  0  0  0  0  0  0  0
    1.0189    0.1411    0.0000 C   0  0  1  0  0  0  0  0  0  0  0  0
    1.0189   -0.6839    0.0000 H   0  0  0  0  0  0  0  0  0  0  0  0
   -3.2679   -1.5089    0.0000 O   0  0  0  0  0  0  0  0  0  0  0  0
   -2.5534   -1.0964    0.0000 C   0  0  0  0  0  0  0  0  0  0  0  0
   -1.1245    0.5536    0.0000 C   0  0  0  0  0  0  0  0  0  0  0  0
    2.5181    1.6336    0.0000 O   0  0  0  0  0  0  0  0  0  0  0  0
   -0.4100   -2.3339    0.0000 C   0  0  0  0  0  0  0  0  0  0  0  0
  2  8  1  0  0  0  0
  3 17  1  6  0  0  0
  3  5  1  0  0  0  0
  3 24  1  0  0  0  0
  4  7  1  0  0  0  0
  5  1  1  0  0  0  0
  6 15  1  6  0  0  0
  6  9  1  0  0  0  0
  6 10  1  0  0  0  0
  6 23  1  0  0  0  0
  8  9  1  0  0  0  0
  8 25  1  6  0  0  0
  9 11  2  0  0  0  0
 10 12  1  0  0  0  0
 11 22  1  0  0  0  0
 12 22  1  0  0  0  0
 13 19  1  6  0  0  0
 13  2  1  0  0  0  0
 13 14  1  0  0  0  0
 15 13  1  1  0  0  0
 15  7  1  0  0  0  0
 15 16  1  0  0  0  0
 17 19  1  1  0  0  0
 17  4  1  0  0  0  0
 17 18  1  0  0  0  0
 19  1  1  0  0  0  0
 19 20  1  6  0  0  0
 22 21  2  0  0  0  0
M  END
$$$$
Nc1ccccc1Cl
 OpenBabel07182308452D

 10 10  0  0  1  0  0  0  0  0999 V2000
    7.7581   -7.2907    0.0000 C   0  0  0  0  0  0  0  0  0  0  0  0
    7.0436   -6.8782    0.0000 C   0  0  0  0  0  0  0  0  0  0  0  0
    7.7581   -8.1157    0.0000 C   0  0  0  0  0  0  0  0  0  0  0  0
    6.3292   -7.2907    0.0000 C   0  0  0  0  0  0  0  0  0  0  0  0
    7.0436   -8.5282    0.0000 C   0  0  0  0  0  0  0  0  0  0  0  0
    6.3292   -8.1157    0.0000 C   0  0  0  0  0  0  0  0  0  0  0  0
    5.6147   -8.5282    0.0000 N   0  0  0  0  0  0  0  0  0  0  0  0
    7.0436   -9.3532    0.0000 Cl  0  0  0  0  0  0  0  0  0  0  0  0
    4.7621   -8.0359    0.0000 H   0  0  0  0  0  0  0  0  0  0  0  0
    5.6147   -9.5127    0.0000 H   0  0  0  0  0  0  0  0  0  0  0  0
  2  1  1  0  0  0  0
  3  1  2  0  0  0  0
  4  2  2  0  0  0  0
  5  3  1  0  0  0  0
  6  4  1  0  0  0  0
  6  5  2  0  0  0  0
  7  6  1  0  0  0  0
  7  9  1  0  0  0  0
  7 10  1  0  0  0  0
  8  5  1  0  0  0  0
M  END
$$$$
Oc1ccc(cc1)F
 OpenBabel07182308452D

  8  8  0  0  1  0  0  0  0  0999 V2000
   13.4634   -9.7650    0.0000 C   0  0  0  0  0  0  0  0  0  0  0  0
   12.0337  -10.5886    0.0000 C   0  0  0  0  0  0  0  0  0  0  0  0
   14.1783   -9.3532    0.0000 F   0  0  0  0  0  0  0  0  0  0  0  0
   12.7493   -9.3517    0.0000 C   0  0  0  0  0  0  0  0  0  0  0  0
   13.4626  -10.5899    0.0000 C   0  0  0  0  0  0  0  0  0  0  0  0
   12.0345   -9.7636    0.0000 C   0  0  0  0  0  0  0  0  0  0  0  0
   12.7477  -11.0018    0.0000 C   0  0  0  0  0  0  0  0  0  0  0  0
   11.3188  -11.0004    0.0000 O   0  0  0  0  0  0  0  0  0  0  0  0
  3  1  1  0  0  0  0
  4  1  2  0  0  0  0
  5  1  1  0  0  0  0
  6  2  2  0  0  0  0
  6  4  1  0  0  0  0
  7  2  1  0  0  0  0
  7  5  2  0  0  0  0
  8  2  1  0  0  0  0
M  END
$$$$
Fc1ccc2c(c1)C(=C(C2=C)C)C
 OpenBabel07182308452D

 13 14  0  0  0  0  0  0  0  0999 V2000
   10.8582   -5.2880    0.0000 C   0  0  0  0  0  0  0  0  0  0  0  0
   11.5256   -4.8030    0.0000 C   0  0  0  0  0  0  0  0  0  0  0  0
   11.2707   -4.0184    0.0000 C   0  0  0  0  0  0  0  0  0  0  0  0
   10.4457   -4.0184    0.0000 C   0  0  0  0  0  0  0  0  0  0  0  0
   10.1908   -4.8030    0.0000 C   0  0  0  0  0  0  0  0  0  0  0  0
    9.8937   -3.4053    0.0000 C   0  0  0  0  0  0  0  0  0  0  0  0
    9.0867   -3.5769    0.0000 C   0  0  0  0  0  0  0  0  0  0  0  0
    8.8317   -4.3615    0.0000 C   0  0  0  0  0  0  0  0  0  0  0  0
    9.3838   -4.9746    0.0000 C   0  0  0  0  0  0  0  0  0  0  0  0
   10.8582   -6.1130    0.0000 C   0  0  0  0  0  0  0  0  0  0  0  0
   11.8540   -3.4351    0.0000 C   0  0  0  0  0  0  0  0  0  0  0  0
    8.5033   -2.9935    0.0000 F   0  0  0  0  0  0  0  0  0  0  0  0
   12.3225   -5.0165    0.0000 C   0  0  0  0  0  0  0  0  0  0  0  0
  1  2  1  0  0  0  0
  1  5  1  0  0  0  0
  1 10  2  0  0  0  0
  2  3  2  0  0  0  0
  2 13  1  0  0  0  0
  3  4  1  0  0  0  0
  3 11  1  0  0  0  0
  5  4  1  0  0  0  0
  6  4  2  0  0  0  0
  6  7  1  0  0  0  0
  7  8  2  0  0  0  0
  7 12  1  0  0  0  0
  8  9  1  0  0  0  0
  9  5  2  0  0  0  0
M  END
$$$$
C1CC2CC1C=C2
 OpenBabel07182308452D

  7  8  0  0  0  0  0  0  0  0999 V2000
    1.7862   -0.5634    0.0000 C   0  0  0  0  0  0  0  0  0  0  0  0
    2.5007   -0.1511    0.0000 C   0  0  3  0  0  0  0  0  0  0  0  0
    3.2152   -0.5634    0.0000 C   0  0  0  0  0  0  0  0  0  0  0  0
    3.2152   -1.3885    0.0000 C   0  0  0  0  0  0  0  0  0  0  0  0
    2.5007   -1.8010    0.0000 C   0  0  3  0  0  0  0  0  0  0  0  0
    1.7862   -1.3885    0.0000 C   0  0  0  0  0  0  0  0  0  0  0  0
    2.1637   -0.9760    0.0000 C   0  0  0  0  0  0  0  0  0  0  0  0
  1  2  1  0  0  0  0
  1  6  1  0  0  0  0
  2  3  1  0  0  0  0
  2  7  1  0  0  0  0
  3  4  2  0  0  0  0
  4  5  1  0  0  0  0
  5  6  1  0  0  0  0
  5  7  1  0  0  0  0
M  END
$$$$
Clc1ccc2c(c1)NCNS2(=O)=O
 OpenBabel07182308452D

 15 16  0  0  0  0  0  0  0  0999 V2000
    1.0717   -0.1511    0.0000 C   0  0  0  0  0  0  0  0  0  0  0  0
    1.0717    0.6738    0.0000 N   0  0  0  0  0  0  0  0  0  0  0  0
    0.3572    1.0864    0.0000 S   0  0  0  0  0  0  0  0  0  0  0  0
   -0.3572    0.6738    0.0000 C   0  0  0  0  0  0  0  0  0  0  0  0
   -0.3572   -0.1511    0.0000 C   0  0  0  0  0  0  0  0  0  0  0  0
    0.3572   -0.5634    0.0000 N   0  0  0  0  0  0  0  0  0  0  0  0
   -1.0717    1.0864    0.0000 C   0  0  0  0  0  0  0  0  0  0  0  0
   -1.7861    0.6738    0.0000 C   0  0  0  0  0  0  0  0  0  0  0  0
   -1.7861   -0.1511    0.0000 C   0  0  0  0  0  0  0  0  0  0  0  0
   -1.0717   -0.5634    0.0000 C   0  0  0  0  0  0  0  0  0  0  0  0
   -2.5008   -0.5634    0.0000 Cl  0  0  0  0  0  0  0  0  0  0  0  0
   -0.0552    1.8010    0.0000 O   0  0  0  0  0  0  0  0  0  0  0  0
    0.7696    1.8010    0.0000 O   0  0  0  0  0  0  0  0  0  0  0  0
    1.9551    1.1838    0.0000 H   0  0  0  0  0  0  0  0  0  0  0  0
    0.3572   -1.5479    0.0000 H   0  0  0  0  0  0  0  0  0  0  0  0
  1  2  1  0  0  0  0
  1  6  1  0  0  0  0
  2  3  1  0  0  0  0
  2 14  1  0  0  0  0
  3  4  1  0  0  0  0
  3 12  2  0  0  0  0
  3 13  2  0  0  0  0
  4  5  1  0  0  0  0
  4  7  2  0  0  0  0
  5  6  1  0  0  0  0
  5 10  2  0  0  0  0
  6 15  1  0  0  0  0
  7  8  1  0  0  0  0
  8  9  2  0  0  0  0
  9 10  1  0  0  0  0
  9 11  1  0  0  0  0
M  END
$$$$
O=C1C[C@@H]2N1CC(S2)(C)C
 OpenBabel07182308452D

 11 12  0  0  0  0  0  0  0  0999 V2000
    1.6405   -1.1331    0.0000 N   0  0  0  0  0  0  0  0  0  0  0  0
    1.6405   -0.2902    0.0000 C   0  0  1  0  0  0  0  0  0  0  0  0
    0.8156   -1.1175    0.0000 C   0  0  0  0  0  0  0  0  0  0  0  0
    0.8156   -0.2824    0.0000 C   0  0  0  0  0  0  0  0  0  0  0  0
    2.4316   -1.3674    0.0000 C   0  0  0  0  0  0  0  0  0  0  0  0
    2.4239   -0.0482    0.0000 S   0  0  0  0  0  0  0  0  0  0  0  0
    2.8975   -0.7195    0.0000 C   0  0  0  0  0  0  0  0  0  0  0  0
    0.1680   -1.5392    0.0000 O   0  0  0  0  0  0  0  0  0  0  0  0
    3.5325   -0.1576    0.0000 C   0  0  0  0  0  0  0  0  0  0  0  0
    3.5325   -1.2738    0.0000 C   0  0  0  0  0  0  0  0  0  0  0  0
    1.6328    0.4122    0.0000 H   0  0  0  0  0  0  0  0  0  0  0  0
  2  1  1  0  0  0  0
  2 11  1  6  0  0  0
  2  4  1  0  0  0  0
  3  1  1  0  0  0  0
  4  3  1  0  0  0  0
  5  1  1  0  0  0  0
  6  2  1  0  0  0  0
  6  7  1  0  0  0  0
  7  5  1  0  0  0  0
  8  3  2  0  0  0  0
  9  7  1  0  0  0  0
 10  7  1  0  0  0  0
M  END
$$$$
Clc1ccc2c(c1)nccc2N
 OpenBabel07182308452D

 13 14  0  0  0  0  0  0  0  0999 V2000
    2.1435   -2.0625    0.0000 N   0  0  0  0  0  0  0  0  0  0  0  0
    2.8579   -1.6500    0.0000 C   0  0  0  0  0  0  0  0  0  0  0  0
    1.4290   -0.8249    0.0000 C   0  0  0  0  0  0  0  0  0  0  0  0
    2.1435   -0.4124    0.0000 C   0  0  0  0  0  0  0  0  0  0  0  0
    1.4290   -1.6500    0.0000 C   0  0  0  0  0  0  0  0  0  0  0  0
    0.7144   -2.0625    0.0000 C   0  0  0  0  0  0  0  0  0  0  0  0
    0.7144   -0.4124    0.0000 C   0  0  0  0  0  0  0  0  0  0  0  0
    0.0000   -1.6500    0.0000 C   0  0  0  0  0  0  0  0  0  0  0  0
    2.8579   -0.8249    0.0000 C   0  0  0  0  0  0  0  0  0  0  0  0
    0.0000   -0.8249    0.0000 C   0  0  0  0  0  0  0  0  0  0  0  0
   -0.7144   -2.0625    0.0000 Cl  0  0  0  0  0  0  0  0  0  0  0  0
    2.1435    0.4125    0.0000 N   0  0  0  0  0  0  0  0  0  0  0  0
    2.9961    0.9048    0.0000 H   0  0  0  0  0  0  0  0  0  0  0  0
  1  2  2  0  0  0  0
  2  9  1  0  0  0  0
  3  4  1  0  0  0  0
  3  5  1  0  0  0  0
  3  7  2  0  0  0  0
  5  1  1  0  0  0  0
  6  5  2  0  0  0  0
  7 10  1  0  0  0  0
  8  6  1  0  0  0  0
  9  4  2  0  0  0  0
 10  8  2  0  0  0  0
 11  8  1  0  0  0  0
 12  4  1  0  0  0  0
 12 13  1  0  0  0  0
M  END
$$$$
NC=S
 OpenBabel07182308452D

  5  4  0  0  0  0  0  0  0  0999 V2000
    2.3644    1.6005    0.0000 S   0  0  0  0  0  0  0  0  0  0  0  0
    3.7934    1.6005    0.0000 N   0  0  0  0  0  0  0  0  0  0  0  0
    3.0790    1.1880    0.0000 C   0  0  0  0  0  0  0  0  0  0  0  0
    4.6460    1.1083    0.0000 H   0  0  0  0  0  0  0  0  0  0  0  0
    3.7934    2.5850    0.0000 H   0  0  0  0  0  0  0  0  0  0  0  0
  1  3  2  0  0  0  0
  2  3  1  0  0  0  0
  2  4  1  0  0  0  0
  2  5  1  0  0  0  0
M  END
$$$$
Oc1ccc2c(c1)[C@@]13CCCC[C@]3([C@H](C2)N(CC1)C)O
 OpenBabel07182308452D

 23 26  0  0  1  0  0  0  0  0999 V2000
    6.4350   -0.2341    0.0000 O   0  0  0  0  0  0  0  0  0  0  0  0
    2.0939   -1.0789    0.0000 O   0  0  0  0  0  0  0  0  0  0  0  0
    5.3724    0.1709    0.0000 N   0  0  0  0  0  0  0  0  0  0  0  0
    5.0062   -1.0591    0.0000 C   0  0  1  0  0  0  0  0  0  0  0  0
    5.7205   -0.6466    0.0000 C   0  0  1  0  0  0  0  0  0  0  0  0
    5.7205    0.1784    0.0000 C   0  0  2  0  0  0  0  0  0  0  0  0
    4.8386   -0.7539    0.0000 C   0  0  0  0  0  0  0  0  0  0  0  0
    4.9929   -1.9183    0.0000 C   0  0  0  0  0  0  0  0  0  0  0  0
    6.4713   -1.0647    0.0000 C   0  0  0  0  0  0  0  0  0  0  0  0
    4.2916   -0.6466    0.0000 C   0  0  0  0  0  0  0  0  0  0  0  0
    4.7695   -0.0975    0.0000 C   0  0  0  0  0  0  0  0  0  0  0  0
    5.0062    0.5909    0.0000 C   0  0  0  0  0  0  0  0  0  0  0  0
    5.7336   -2.3536    0.0000 C   0  0  0  0  0  0  0  0  0  0  0  0
    6.4779   -1.9240    0.0000 C   0  0  0  0  0  0  0  0  0  0  0  0
    4.2916    0.1784    0.0000 C   0  0  0  0  0  0  0  0  0  0  0  0
    5.5440    0.9778    0.0000 C   0  0  0  0  0  0  0  0  0  0  0  0
    3.5542   -1.0876    0.0000 C   0  0  0  0  0  0  0  0  0  0  0  0
    3.5542    0.6195    0.0000 C   0  0  0  0  0  0  0  0  0  0  0  0
    2.8067   -0.6638    0.0000 C   0  0  0  0  0  0  0  0  0  0  0  0
    2.8067    0.1955    0.0000 C   0  0  0  0  0  0  0  0  0  0  0  0
    6.0505    0.7498    0.0000 H   0  0  0  0  0  0  0  0  0  0  0  0
    7.2750   -0.7191    0.0000 H   0  0  0  0  0  0  0  0  0  0  0  0
    1.2807   -0.6134    0.0000 H   0  0  0  0  0  0  0  0  0  0  0  0
  1 22  1  0  0  0  0
  2 19  1  0  0  0  0
  2 23  1  0  0  0  0
  3  6  1  0  0  0  0
  3 11  1  0  0  0  0
  3 16  1  0  0  0  0
  4  5  1  1  0  0  0
  4  7  1  0  0  0  0
  4  8  1  0  0  0  0
  4 10  1  0  0  0  0
  5  1  1  0  0  0  0
  5  6  1  6  0  0  0
  5  9  1  0  0  0  0
  6 12  1  0  0  0  0
  6 21  1  6  0  0  0
  7 11  1  0  0  0  0
  8 13  1  0  0  0  0
  9 14  1  0  0  0  0
 10 15  2  0  0  0  0
 10 17  1  0  0  0  0
 12 15  1  0  0  0  0
 13 14  1  0  0  0  0
 15 18  1  0  0  0  0
 17 19  2  0  0  0  0
 18 20  2  0  0  0  0
 19 20  1  0  0  0  0
M  END
$$$$
C1CCC1
 OpenBabel07182308452D

  4  4  0  0  1  0  0  0  0  0999 V2000
    4.9309    1.5298    0.0000 C   0  0  0  0  0  0  0  0  0  0  0  0
    4.1071    1.4867    0.0000 C   0  0  0  0  0  0  0  0  0  0  0  0
    4.8878    2.3536    0.0000 C   0  0  0  0  0  0  0  0  0  0  0  0
    4.0639    2.3104    0.0000 C   0  0  0  0  0  0  0  0  0  0  0  0
  1  2  1  0  0  0  0
  1  3  1  0  0  0  0
  2  4  1  0  0  0  0
  3  4  1  0  0  0  0
M  END
$$$$
CN1CCC2(CC1)NC1=C3NC(=O)/C(=C\C=C\[C@H](C)[C@H](O)[C@@H](C)[C@H]([C@H]([C@@H]([C@@H](C/C=C/O[C@@]4(C(=O)c5c(C1=N2)c(C3=O)c(O)c(c5O4)C)C)C)O)C)O)/C
 OpenBabel07182308452D

 58 63  0  0  1  0  0  0  0  0999 V2000
   15.4059  -12.0930    0.0000 C   0  0  0  0  0  0  0  0  0  0  0  0
   15.4016  -12.9194    0.0000 C   0  0  0  0  0  0  0  0  0  0  0  0
   16.1124  -13.3342    0.0000 C   0  0  0  0  0  0  0  0  0  0  0  0
   16.8314  -12.9268    0.0000 N   0  0  0  0  0  0  0  0  0  0  0  0
   16.8357  -12.1004    0.0000 C   0  0  0  0  0  0  0  0  0  0  0  0
   16.1209  -11.6814    0.0000 C   0  0  0  0  0  0  0  0  0  0  0  0
   13.2682  -10.0248    0.0000 C   0  0  0  0  0  0  0  0  0  0  0  0
   13.2646  -10.8513    0.0000 C   0  0  0  0  0  0  0  0  0  0  0  0
   12.5536  -11.2665    0.0000 C   0  0  0  0  0  0  0  0  0  0  0  0
   12.5544  -12.0946    0.0000 C   0  0  0  0  0  0  0  0  0  0  0  0
   11.8339  -10.8606    0.0000 C   0  0  0  0  0  0  0  0  0  0  0  0
   11.1256   -9.6211    0.0000 C   0  0  1  0  0  0  0  0  0  0  0  0
   11.8360  -10.0403    0.0000 C   0  0  0  0  0  0  0  0  0  0  0  0
   12.5488   -9.6329    0.0000 C   0  0  0  0  0  0  0  0  0  0  0  0
   11.1324   -8.7985    0.0000 C   0  0  2  0  0  0  0  0  0  0  0  0
   11.8496   -8.3953    0.0000 C   0  0  1  0  0  0  0  0  0  0  0  0
   12.5703   -7.1689    0.0000 C   0  0  1  0  0  0  0  0  0  0  0  0
   11.8580   -7.5699    0.0000 C   0  0  1  0  0  0  0  0  0  0  0  0
   13.2785   -7.5845    0.0000 C   0  0  1  0  0  0  0  0  0  0  0  0
   13.2692   -8.4061    0.0000 O   0  0  0  0  0  0  0  0  0  0  0  0
   13.9923   -7.1861    0.0000 C   0  0  2  0  0  0  0  0  0  0  0  0
   14.6967   -7.6006    0.0000 C   0  0  0  0  0  0  0  0  0  0  0  0
   16.0992   -8.4325    0.0000 C   0  0  0  0  0  0  0  0  0  0  0  0
   16.1052   -7.6184    0.0000 C   0  0  0  0  0  0  0  0  0  0  0  0
   15.4082   -7.2048    0.0000 C   0  0  0  0  0  0  0  0  0  0  0  0
   15.3877   -8.8326    0.0000 C   0  0  0  0  0  0  0  0  0  0  0  0
   13.9679   -9.6167    0.0000 C   0  0  0  0  0  0  0  0  0  0  0  0
   14.6630  -10.0363    0.0000 C   0  0  0  0  0  0  0  0  0  0  0  0
   15.3729   -9.6422    0.0000 N   0  0  0  0  0  0  0  0  0  0  0  0
   13.1416  -12.6764    0.0000 O   0  0  0  0  0  0  0  0  0  0  0  0
   10.4061  -10.0335    0.0000 C   0  0  0  0  0  0  0  0  0  0  0  0
   10.4040  -10.8568    0.0000 C   0  0  0  0  0  0  0  0  0  0  0  0
    9.6890  -11.2643    0.0000 C   0  0  0  0  0  0  0  0  0  0  0  0
    9.6832  -12.0853    0.0000 O   0  0  0  0  0  0  0  0  0  0  0  0
   11.1078  -12.0953    0.0000 C   0  0  1  0  0  0  0  0  0  0  0  0
   11.1136  -11.2742    0.0000 O   0  0  0  0  0  0  0  0  0  0  0  0
   11.1027  -12.9194    0.0000 C   0  0  0  0  0  0  0  0  0  0  0  0
   16.8067   -8.8567    0.0000 C   0  0  0  0  0  0  0  0  0  0  0  0
   10.4046   -9.2070    0.0000 C   0  0  0  0  0  0  0  0  0  0  0  0
   12.5787   -6.3425    0.0000 C   0  0  0  0  0  0  0  0  0  0  0  0
   14.0016   -6.3598    0.0000 C   0  0  0  0  0  0  0  0  0  0  0  0
   10.4187   -8.3816    0.0000 O   0  0  0  0  0  0  0  0  0  0  0  0
   11.1461   -7.1457    0.0000 O   0  0  0  0  0  0  0  0  0  0  0  0
   13.9742   -8.7902    0.0000 O   0  0  0  0  0  0  0  0  0  0  0  0
   12.5413   -8.8045    0.0000 O   0  0  0  0  0  0  0  0  0  0  0  0
   11.1284   -7.9781    0.0000 C   0  0  0  0  0  0  0  0  0  0  0  0
   14.6771   -8.4064    0.0000 O   0  0  0  0  0  0  0  0  0  0  0  0
   14.6987  -10.8530    0.0000 C   0  0  0  0  0  0  0  0  0  0  0  0
   13.9807  -11.2640    0.0000 C   0  0  0  0  0  0  0  0  0  0  0  0
   13.9766  -12.0892    0.0000 N   0  0  0  0  0  0  0  0  0  0  0  0
   15.4126  -11.2711    0.0000 N   0  0  0  0  0  0  0  0  0  0  0  0
   17.5465  -13.3416    0.0000 C   0  0  0  0  0  0  0  0  0  0  0  0
   11.8306   -9.1899    0.0000 C   0  0  0  0  0  0  0  0  0  0  0  0
   12.4237   -8.8816    0.0000 H   0  0  0  0  0  0  0  0  0  0  0  0
   16.2167  -10.1493    0.0000 H   0  0  0  0  0  0  0  0  0  0  0  0
   11.1595   -6.1758    0.0000 H   0  0  0  0  0  0  0  0  0  0  0  0
   13.3485   -8.3287    0.0000 H   0  0  0  0  0  0  0  0  0  0  0  0
   16.2687  -10.7850    0.0000 H   0  0  0  0  0  0  0  0  0  0  0  0
  1  2  1  0  0  0  0
  1 51  1  0  0  0  0
  2  3  1  0  0  0  0
  3  4  1  0  0  0  0
  4  5  1  0  0  0  0
  4 52  1  0  0  0  0
  5  6  1  0  0  0  0
  6  1  1  0  0  0  0
  7 14  1  0  0  0  0
  7  8  2  0  0  0  0
  8 49  1  0  0  0  0
  9  8  1  0  0  0  0
  9 11  2  0  0  0  0
 10 30  2  0  0  0  0
 10  9  1  0  0  0  0
 11 13  1  0  0  0  0
 12 39  1  6  0  0  0
 12 31  1  0  0  0  0
 13 14  2  0  0  0  0
 13 53  1  0  0  0  0
 14 45  1  0  0  0  0
 15 12  1  0  0  0  0
 15 42  1  1  0  0  0
 16 15  1  0  0  0  0
 16 46  1  1  0  0  0
 17 18  1  0  0  0  0
 17 40  1  6  0  0  0
 18 43  1  6  0  0  0
 18 16  1  0  0  0  0
 19 17  1  0  0  0  0
 19 20  1  6  0  0  0
 20 54  1  0  0  0  0
 21 41  1  1  0  0  0
 21 19  1  0  0  0  0
 22 21  1  0  0  0  0
 23 38  1  0  0  0  0
 23 24  2  0  0  0  0
 24 25  1  0  0  0  0
 25 22  2  0  0  0  0
 26 47  2  0  0  0  0
 26 23  1  0  0  0  0
 27  7  1  0  0  0  0
 27 44  2  0  0  0  0
 27 28  1  0  0  0  0
 28 29  1  0  0  0  0
 29 26  1  0  0  0  0
 29 55  1  0  0  0  0
 32 31  1  0  0  0  0
 32 33  2  0  0  0  0
 33 34  1  0  0  0  0
 34 35  1  0  0  0  0
 35 36  1  0  0  0  0
 35 10  1  0  0  0  0
 35 37  1  6  0  0  0
 36 11  1  0  0  0  0
 43 56  1  0  0  0  0
 45 57  1  0  0  0  0
 48 28  2  0  0  0  0
 48 49  1  0  0  0  0
 49 50  2  0  0  0  0
 50  1  1  0  0  0  0
 51 48  1  0  0  0  0
 51 58  1  0  0  0  0
M  END
$$$$
CC1OC(=O)N(C1=O)C
 OpenBabel07182308452D

  9  9  0  0  1  0  0  0  0  0999 V2000
    2.6897    0.5163    0.0000 O   0  0  0  0  0  0  0  0  0  0  0  0
    4.5543   -0.5232    0.0000 O   0  0  0  0  0  0  0  0  0  0  0  0
    1.6501   -0.5232    0.0000 O   0  0  0  0  0  0  0  0  0  0  0  0
    3.1023   -0.7533    0.0000 N   0  0  0  0  0  0  0  0  0  0  0  0
    3.5148    0.5163    0.0000 C   0  0  3  0  0  0  0  0  0  0  0  0
    3.7697   -0.2683    0.0000 C   0  0  0  0  0  0  0  0  0  0  0  0
    3.5148    1.3414    0.0000 C   0  0  0  0  0  0  0  0  0  0  0  0
    2.4348   -0.2683    0.0000 C   0  0  0  0  0  0  0  0  0  0  0  0
    3.1023   -1.5783    0.0000 C   0  0  0  0  0  0  0  0  0  0  0  0
  1  5  1  0  0  0  0
  1  8  1  0  0  0  0
  2  6  2  0  0  0  0
  3  8  2  0  0  0  0
  4  6  1  0  0  0  0
  4  8  1  0  0  0  0
  4  9  1  0  0  0  0
  5  6  1  0  0  0  0
  5  7  1  0  0  0  0
M  END
$$$$
OC1=CC(=O)[C@@]2([C@H](C1)C[C@H]1C(=C2O)C(=O)c2c([C@H]1O)c(Cl)ccc2O)O
 OpenBabel07182308452D

 33 36  0  0  1  0  0  0  0  0999 V2000
    7.0027   -4.6741    0.0000 C   0  0  2  0  0  0  0  0  0  0  0  0
    7.0027   -3.8491    0.0000 C   0  0  2  0  0  0  0  0  0  0  0  0
    7.7172   -5.0866    0.0000 C   0  0  0  0  0  0  0  0  0  0  0  0
    6.2882   -5.0866    0.0000 C   0  0  0  0  0  0  0  0  0  0  0  0
    6.2882   -3.4366    0.0000 C   0  0  0  0  0  0  0  0  0  0  0  0
    7.7172   -3.4366    0.0000 C   0  0  0  0  0  0  0  0  0  0  0  0
    7.0027   -3.0241    0.0000 O   0  0  0  0  0  0  0  0  0  0  0  0
    8.4316   -4.6741    0.0000 C   0  0  0  0  0  0  0  0  0  0  0  0
    5.5737   -4.6741    0.0000 C   0  0  1  0  0  0  0  0  0  0  0  0
    5.5737   -3.8491    0.0000 C   0  0  0  0  0  0  0  0  0  0  0  0
    6.2882   -2.6116    0.0000 O   0  0  0  0  0  0  0  0  0  0  0  0
    8.4316   -3.8491    0.0000 C   0  0  0  0  0  0  0  0  0  0  0  0
    7.7172   -2.6116    0.0000 O   0  0  0  0  0  0  0  0  0  0  0  0
    9.1461   -5.0866    0.0000 O   0  0  0  0  0  0  0  0  0  0  0  0
    4.8592   -5.0866    0.0000 C   0  0  1  0  0  0  0  0  0  0  0  0
    4.8592   -3.4366    0.0000 C   0  0  0  0  0  0  0  0  0  0  0  0
    4.1447   -4.6741    0.0000 C   0  0  0  0  0  0  0  0  0  0  0  0
    4.8592   -5.9117    0.0000 O   0  0  0  0  0  0  0  0  0  0  0  0
    4.1447   -3.8491    0.0000 C   0  0  0  0  0  0  0  0  0  0  0  0
    4.8592   -2.6116    0.0000 O   0  0  0  0  0  0  0  0  0  0  0  0
    3.4303   -5.0866    0.0000 C   0  0  0  0  0  0  0  0  0  0  0  0
    3.4303   -3.4366    0.0000 C   0  0  0  0  0  0  0  0  0  0  0  0
    2.7158   -4.6741    0.0000 C   0  0  0  0  0  0  0  0  0  0  0  0
    3.4303   -5.9117    0.0000 Cl  0  0  0  0  0  0  0  0  0  0  0  0
    2.7158   -3.8491    0.0000 C   0  0  0  0  0  0  0  0  0  0  0  0
    3.4303   -2.6116    0.0000 O   0  0  0  0  0  0  0  0  0  0  0  0
    7.0027   -5.4992    0.0000 H   0  0  0  0  0  0  0  0  0  0  0  0
    5.5737   -5.4992    0.0000 H   0  0  0  0  0  0  0  0  0  0  0  0
    7.8427   -2.5391    0.0000 H   0  0  0  0  0  0  0  0  0  0  0  0
    7.0997   -2.1431    0.0000 H   0  0  0  0  0  0  0  0  0  0  0  0
    9.1461   -6.0236    0.0000 H   0  0  0  0  0  0  0  0  0  0  0  0
    4.0192   -6.3967    0.0000 H   0  0  0  0  0  0  0  0  0  0  0  0
    4.2418   -2.1431    0.0000 H   0  0  0  0  0  0  0  0  0  0  0  0
  1 27  1  0  0  0  0
  1  2  1  1  0  0  0
  1  3  1  0  0  0  0
  1  4  1  0  0  0  0
  2  5  1  0  0  0  0
  2  6  1  0  0  0  0
  2  7  1  1  0  0  0
  3  8  1  0  0  0  0
  4  9  1  0  0  0  0
  5 10  2  0  0  0  0
  5 11  1  0  0  0  0
  6 12  1  0  0  0  0
  6 13  2  0  0  0  0
  7 29  1  0  0  0  0
  8 12  2  0  0  0  0
  8 14  1  0  0  0  0
  9 10  1  0  0  0  0
  9 28  1  1  0  0  0
 10 16  1  0  0  0  0
 11 30  1  0  0  0  0
 14 31  1  0  0  0  0
 15 17  1  0  0  0  0
 15 18  1  0  0  0  0
 15  9  1  6  0  0  0
 16 19  1  0  0  0  0
 16 20  2  0  0  0  0
 17 21  1  0  0  0  0
 17 19  2  0  0  0  0
 18 32  1  0  0  0  0
 19 22  1  0  0  0  0
 21 23  2  0  0  0  0
 21 24  1  0  0  0  0
 22 25  2  0  0  0  0
 22 26  1  0  0  0  0
 23 25  1  0  0  0  0
 26 33  1  0  0  0  0
M  END
$$$$
O=C1C=C[C@]2(C(=C1)CC[C@@H]1[C@]2(F)[C@@H](O)C[C@]2([C@H]1C[C@H]([C@H]2O)O)C)C
 OpenBabel07182308452D

 29 32  0  0  1  0  0  0  0  0999 V2000
    4.1400   -0.1892    0.0000 F   0  0  0  0  0  0  0  0  0  0  0  0
    6.6263    1.0402    0.0000 O   0  0  0  0  0  0  0  0  0  0  0  0
    3.9559    0.4163    0.0000 O   0  0  0  0  0  0  0  0  0  0  0  0
    8.1864   -0.4087    0.0000 O   0  0  0  0  0  0  0  0  0  0  0  0
    1.6500   -2.5144    0.0000 O   0  0  0  0  0  0  0  0  0  0  0  0
    6.0993    0.0038    0.0000 C   0  0  1  0  0  0  0  0  0  0  0  0
    6.0993   -0.8212    0.0000 C   0  0  2  0  0  0  0  0  0  0  0  0
    5.3849   -1.2337    0.0000 C   0  0  1  0  0  0  0  0  0  0  0  0
    4.6703   -0.8212    0.0000 C   0  0  1  0  0  0  0  0  0  0  0  0
    6.8799    0.2553    0.0000 C   0  0  1  0  0  0  0  0  0  0  0  0
    5.3849    0.4163    0.0000 C   0  0  0  0  0  0  0  0  0  0  0  0
    6.8799   -1.0726    0.0000 C   0  0  0  0  0  0  0  0  0  0  0  0
    4.6703    0.0038    0.0000 C   0  0  2  0  0  0  0  0  0  0  0  0
    7.3614   -0.4087    0.0000 C   0  0  1  0  0  0  0  0  0  0  0  0
    3.9196   -1.2393    0.0000 C   0  0  1  0  0  0  0  0  0  0  0  0
    5.3981   -2.0929    0.0000 C   0  0  0  0  0  0  0  0  0  0  0  0
    6.0993    0.8288    0.0000 C   0  0  0  0  0  0  0  0  0  0  0  0
    4.6572   -2.5283    0.0000 C   0  0  0  0  0  0  0  0  0  0  0  0
    3.9130   -2.0986    0.0000 C   0  0  0  0  0  0  0  0  0  0  0  0
    3.6435   -0.4619    0.0000 C   0  0  0  0  0  0  0  0  0  0  0  0
    3.1550   -0.7739    0.0000 C   0  0  0  0  0  0  0  0  0  0  0  0
    3.1413   -2.5521    0.0000 C   0  0  0  0  0  0  0  0  0  0  0  0
    2.3730   -1.2095    0.0000 C   0  0  0  0  0  0  0  0  0  0  0  0
    2.3660   -2.1046    0.0000 C   0  0  0  0  0  0  0  0  0  0  0  0
    6.1691   -1.4775    0.0000 H   0  0  0  0  0  0  0  0  0  0  0  0
    5.9589   -1.5593    0.0000 H   0  0  0  0  0  0  0  0  0  0  0  0
    7.2765    1.7600    0.0000 H   0  0  0  0  0  0  0  0  0  0  0  0
    3.9559    1.3863    0.0000 H   0  0  0  0  0  0  0  0  0  0  0  0
    8.6714   -1.2487    0.0000 H   0  0  0  0  0  0  0  0  0  0  0  0
  2 27  1  0  0  0  0
  3 28  1  0  0  0  0
  4 29  1  0  0  0  0
  5 24  2  0  0  0  0
  6  7  1  1  0  0  0
  6 11  1  0  0  0  0
  6 17  1  0  0  0  0
  7  8  1  1  0  0  0
  7 12  1  0  0  0  0
  7 25  1  0  0  0  0
  8  9  1  1  0  0  0
  8 16  1  0  0  0  0
  8 26  1  0  0  0  0
  9  1  1  0  0  0  0
  9 15  1  1  0  0  0
 10  2  1  0  0  0  0
 10  6  1  6  0  0  0
 10 14  1  0  0  0  0
 11 13  1  0  0  0  0
 12 14  1  0  0  0  0
 13  3  1  0  0  0  0
 13  9  1  1  0  0  0
 14  4  1  6  0  0  0
 15 19  1  0  0  0  0
 15 20  1  1  0  0  0
 15 21  1  0  0  0  0
 16 18  1  0  0  0  0
 18 19  1  0  0  0  0
 19 22  2  0  0  0  0
 21 23  2  0  0  0  0
 22 24  1  0  0  0  0
 23 24  1  0  0  0  0
M  END
$$$$
O=C1OC[C@]2([C@H](C1)CC[C@@H]1[C@@H]2CC[C@]2([C@H]1CC[C@]2(C)O)C)C
 OpenBabel07182308452D

 27 30  0  0  1  0  0  0  0  0999 V2000
    7.5474    1.4947    0.0000 O   0  0  0  0  0  0  0  0  0  0  0  0
    2.3727   -0.4535    0.0000 O   0  0  0  0  0  0  0  0  0  0  0  0
    1.6498   -1.7582    0.0000 O   0  0  0  0  0  0  0  0  0  0  0  0
    6.0987   -0.0653    0.0000 C   0  0  2  0  0  0  0  0  0  0  0  0
    6.0987    0.7597    0.0000 C   0  0  1  0  0  0  0  0  0  0  0  0
    5.3843   -0.4777    0.0000 C   0  0  1  0  0  0  0  0  0  0  0  0
    4.6698   -0.0653    0.0000 C   0  0  1  0  0  0  0  0  0  0  0  0
    3.9192   -0.4833    0.0000 C   0  0  2  0  0  0  0  0  0  0  0  0
    6.8793    1.0111    0.0000 C   0  0  2  0  0  0  0  0  0  0  0  0
    5.3843    1.1722    0.0000 C   0  0  0  0  0  0  0  0  0  0  0  0
    4.6698    0.7597    0.0000 C   0  0  0  0  0  0  0  0  0  0  0  0
    6.8793   -0.3166    0.0000 C   0  0  0  0  0  0  0  0  0  0  0  0
    3.9126   -1.3425    0.0000 C   0  0  1  0  0  0  0  0  0  0  0  0
    5.3975   -1.3368    0.0000 C   0  0  0  0  0  0  0  0  0  0  0  0
    7.3607    0.3473    0.0000 C   0  0  0  0  0  0  0  0  0  0  0  0
    4.6567   -1.7722    0.0000 C   0  0  0  0  0  0  0  0  0  0  0  0
    6.0987    1.5846    0.0000 C   0  0  0  0  0  0  0  0  0  0  0  0
    3.1546   -0.0180    0.0000 C   0  0  0  0  0  0  0  0  0  0  0  0
    3.9255    0.3416    0.0000 C   0  0  0  0  0  0  0  0  0  0  0  0
    3.1409   -1.7960    0.0000 C   0  0  0  0  0  0  0  0  0  0  0  0
    6.6257    1.7960    0.0000 C   0  0  0  0  0  0  0  0  0  0  0  0
    2.3658   -1.3485    0.0000 C   0  0  0  0  0  0  0  0  0  0  0  0
    6.1685   -0.7215    0.0000 H   0  0  0  0  0  0  0  0  0  0  0  0
    5.9583   -0.8032    0.0000 H   0  0  0  0  0  0  0  0  0  0  0  0
    5.2415    0.2647    0.0000 H   0  0  0  0  0  0  0  0  0  0  0  0
    3.9151   -2.0025    0.0000 H   0  0  0  0  0  0  0  0  0  0  0  0
    8.4328    1.0986    0.0000 H   0  0  0  0  0  0  0  0  0  0  0  0
  1 27  1  0  0  0  0
  2 18  1  0  0  0  0
  2 22  1  0  0  0  0
  3 22  2  0  0  0  0
  4  5  1  6  0  0  0
  4 12  1  0  0  0  0
  4 23  1  0  0  0  0
  5  9  1  6  0  0  0
  5 10  1  0  0  0  0
  5 17  1  0  0  0  0
  6  4  1  6  0  0  0
  6 14  1  0  0  0  0
  6 24  1  0  0  0  0
  7  6  1  1  0  0  0
  7 11  1  0  0  0  0
  7 25  1  0  0  0  0
  8  7  1  6  0  0  0
  8 18  1  0  0  0  0
  8 19  1  0  0  0  0
  9  1  1  0  0  0  0
  9 15  1  0  0  0  0
  9 21  1  6  0  0  0
 10 11  1  0  0  0  0
 12 15  1  0  0  0  0
 13  8  1  6  0  0  0
 13 16  1  0  0  0  0
 13 20  1  0  0  0  0
 13 26  1  0  0  0  0
 14 16  1  0  0  0  0
 20 22  1  0  0  0  0
M  END
$$$$
O=C1CC[C@]2(C(=C1)CC[C@@H]1[C@@H]2CC[C@]2([C@H]1CC[C@@H]2O)C)C
 OpenBabel07182308452D

 22 25  0  0  0  0  0  0  0  0999 V2000
    2.4402    1.9024    0.0000 O   0  0  0  0  0  0  0  0  0  0  0  0
   -3.0455   -1.6509    0.0000 O   0  0  0  0  0  0  0  0  0  0  0  0
    1.4034    0.0419    0.0000 C   0  0  2  0  0  0  0  0  0  0  0  0
    1.4034    0.8668    0.0000 C   0  0  2  0  0  0  0  0  0  0  0  0
    0.6889   -0.3705    0.0000 C   0  0  1  0  0  0  0  0  0  0  0  0
   -0.0254    0.0419    0.0000 C   0  0  1  0  0  0  0  0  0  0  0  0
   -0.7761   -0.3761    0.0000 C   0  0  2  0  0  0  0  0  0  0  0  0
    0.6889    1.2794    0.0000 C   0  0  0  0  0  0  0  0  0  0  0  0
   -0.0254    0.8668    0.0000 C   0  0  0  0  0  0  0  0  0  0  0  0
    2.1839    1.1183    0.0000 C   0  0  2  0  0  0  0  0  0  0  0  0
    2.1839   -0.2093    0.0000 C   0  0  0  0  0  0  0  0  0  0  0  0
    0.7021   -1.2296    0.0000 C   0  0  0  0  0  0  0  0  0  0  0  0
    2.6653    0.4544    0.0000 C   0  0  0  0  0  0  0  0  0  0  0  0
   -0.7827   -1.2353    0.0000 C   0  0  0  0  0  0  0  0  0  0  0  0
   -0.0386   -1.6649    0.0000 C   0  0  0  0  0  0  0  0  0  0  0  0
    1.4034    1.6918    0.0000 C   0  0  0  0  0  0  0  0  0  0  0  0
   -1.5407    0.0892    0.0000 C   0  0  0  0  0  0  0  0  0  0  0  0
   -0.7697    0.4488    0.0000 C   0  0  0  0  0  0  0  0  0  0  0  0
   -2.3226   -0.3463    0.0000 C   0  0  0  0  0  0  0  0  0  0  0  0
   -1.5544   -1.6887    0.0000 C   0  0  0  0  0  0  0  0  0  0  0  0
   -2.3295   -1.2412    0.0000 C   0  0  0  0  0  0  0  0  0  0  0  0
    3.3894    2.1024    0.0000 H   0  0  0  0  0  0  0  0  0  0  0  0
  1 22  1  0  0  0  0
  2 21  2  0  0  0  0
  3  4  1  1  0  0  0
  3  5  1  0  0  0  0
  3 11  1  0  0  0  0
  4  8  1  0  0  0  0
  4 16  1  1  0  0  0
  5  6  1  0  0  0  0
  5 12  1  6  0  0  0
  6  7  1  1  0  0  0
  6  9  1  0  0  0  0
  7 14  1  0  0  0  0
  7 17  1  0  0  0  0
  7 18  1  1  0  0  0
  8  9  1  0  0  0  0
 10  1  1  0  0  0  0
 10  4  1  1  0  0  0
 10 13  1  0  0  0  0
 11 13  1  0  0  0  0
 12 15  1  0  0  0  0
 14 15  1  0  0  0  0
 14 20  2  0  0  0  0
 17 19  1  0  0  0  0
 19 21  1  0  0  0  0
 20 21  1  0  0  0  0
M  END
$$$$
O=C1OC(C#CC2CC2)c2c(N1)ccc(c2)Cl
 OpenBabel07182308452D

 18 20  0  0  1  0  0  0  0  0999 V2000
    5.9914    0.3836    0.0000 Cl  0  0  0  0  0  0  0  0  0  0  0  0
    2.3645    0.8159    0.0000 O   0  0  0  0  0  0  0  0  0  0  0  0
    1.6500    2.0535    0.0000 O   0  0  0  0  0  0  0  0  0  0  0  0
    3.0791    2.0535    0.0000 N   0  0  0  0  0  0  0  0  0  0  0  0
    4.3166   -1.7400    0.0000 C   0  0  0  0  0  0  0  0  0  0  0  0
    5.0310   -2.1525    0.0000 C   0  0  0  0  0  0  0  0  0  0  0  0
    4.3166   -2.5650    0.0000 C   0  0  0  0  0  0  0  0  0  0  0  0
    3.0791    0.4034    0.0000 C   0  0  3  0  0  0  0  0  0  0  0  0
    3.9041   -1.0255    0.0000 C   0  0  0  0  0  0  0  0  0  0  0  0
    3.7935    0.8159    0.0000 C   0  0  0  0  0  0  0  0  0  0  0  0
    3.4916   -0.3110    0.0000 C   0  0  0  0  0  0  0  0  0  0  0  0
    3.7935    1.6410    0.0000 C   0  0  0  0  0  0  0  0  0  0  0  0
    4.5310    0.3749    0.0000 C   0  0  0  0  0  0  0  0  0  0  0  0
    4.5310    2.0821    0.0000 C   0  0  0  0  0  0  0  0  0  0  0  0
    2.3645    1.6410    0.0000 C   0  0  0  0  0  0  0  0  0  0  0  0
    5.2785    0.7988    0.0000 C   0  0  0  0  0  0  0  0  0  0  0  0
    5.2785    1.6582    0.0000 C   0  0  0  0  0  0  0  0  0  0  0  0
    3.0792    3.0380    0.0000 H   0  0  0  0  0  0  0  0  0  0  0  0
  1 16  1  0  0  0  0
  2  8  1  0  0  0  0
  2 15  1  0  0  0  0
  3 15  2  0  0  0  0
  4 12  1  0  0  0  0
  4 15  1  0  0  0  0
  4 18  1  0  0  0  0
  5  6  1  0  0  0  0
  5  7  1  0  0  0  0
  5  9  1  0  0  0  0
  6  7  1  0  0  0  0
  8 10  1  0  0  0  0
  8 11  1  0  0  0  0
  9 11  3  0  0  0  0
 10 12  2  0  0  0  0
 10 13  1  0  0  0  0
 12 14  1  0  0  0  0
 13 16  2  0  0  0  0
 14 17  2  0  0  0  0
 16 17  1  0  0  0  0
M  END
$$$$
C1CSC=N1
 OpenBabel07182308452D

  5  5  0  0  0  0  0  0  0  0999 V2000
   -7.9109    1.0931    0.0000 S   0  0  0  0  0  0  0  0  0  0  0  0
   -7.0859    1.0931    0.0000 C   0  0  0  0  0  0  0  0  0  0  0  0
   -6.8384    1.8769    0.0000 C   0  0  0  0  0  0  0  0  0  0  0  0
   -7.4984    2.3719    0.0000 N   0  0  0  0  0  0  0  0  0  0  0  0
   -8.1584    1.8769    0.0000 C   0  0  0  0  0  0  0  0  0  0  0  0
  1  2  1  0  0  0  0
  1  5  1  0  0  0  0
  3  2  1  0  0  0  0
  3  4  1  0  0  0  0
  4  5  2  0  0  0  0
M  END
$$$$
O=C1CNC(=O)[C@@H](C)NC(=O)CCCCCNC(=O)[C@@H](NC(=O)[C@H](NC(=O)[C@@H](NC(=O)[C@H](N1)C)C)C)C
 OpenBabel07182308452D

 44 44  0  0  0  0  0  0  0  0999 V2000
    1.7418    1.8769    0.0000 C   0  0  0  0  0  0  0  0  0  0  0  0
    2.4430    2.2894    0.0000 C   0  0  0  0  0  0  0  0  0  0  0  0
    3.1442    1.8769    0.0000 N   0  0  0  0  0  0  0  0  0  0  0  0
    3.8868    2.2894    0.0000 C   0  0  1  0  0  0  0  0  0  0  0  0
    4.5880    1.8769    0.0000 C   0  0  0  0  0  0  0  0  0  0  0  0
    5.2893    2.2894    0.0000 N   0  0  0  0  0  0  0  0  0  0  0  0
    2.4430    3.1145    0.0000 O   0  0  0  0  0  0  0  0  0  0  0  0
    4.5880    1.0519    0.0000 O   0  0  0  0  0  0  0  0  0  0  0  0
    1.7418    1.0519    0.0000 C   0  0  0  0  0  0  0  0  0  0  0  0
    3.8868    3.1145    0.0000 C   0  0  0  0  0  0  0  0  0  0  0  0
    5.9906    1.8769    0.0000 C   0  0  0  0  0  0  0  0  0  0  0  0
    5.9906    0.6394    0.0000 C   0  0  0  0  0  0  0  0  0  0  0  0
    5.2893    0.2269    0.0000 O   0  0  0  0  0  0  0  0  0  0  0  0
    6.7331    0.2269    0.0000 N   0  0  0  0  0  0  0  0  0  0  0  0
    6.7331   -0.8868    0.0000 C   0  0  1  0  0  0  0  0  0  0  0  0
    5.9906   -1.2993    0.0000 C   0  0  0  0  0  0  0  0  0  0  0  0
    5.9906   -2.1243    0.0000 N   0  0  0  0  0  0  0  0  0  0  0  0
    5.2893   -0.8868    0.0000 O   0  0  0  0  0  0  0  0  0  0  0  0
    5.2893   -2.5368    0.0000 C   0  0  2  0  0  0  0  0  0  0  0  0
    4.5880   -2.1243    0.0000 C   0  0  0  0  0  0  0  0  0  0  0  0
    3.8455   -2.5368    0.0000 N   0  0  0  0  0  0  0  0  0  0  0  0
    4.5880   -1.2993    0.0000 O   0  0  0  0  0  0  0  0  0  0  0  0
    3.1311   -2.1243    0.0000 C   0  0  1  0  0  0  0  0  0  0  0  0
    2.4166   -2.5368    0.0000 C   0  0  0  0  0  0  0  0  0  0  0  0
    1.7021   -2.1243    0.0000 N   0  0  0  0  0  0  0  0  0  0  0  0
    2.4166   -3.3618    0.0000 O   0  0  0  0  0  0  0  0  0  0  0  0
    1.0273    0.6394    0.0000 C   0  0  0  0  0  0  0  0  0  0  0  0
    7.4476   -1.2993    0.0000 C   0  0  0  0  0  0  0  0  0  0  0  0
    5.2893   -3.3618    0.0000 C   0  0  0  0  0  0  0  0  0  0  0  0
    0.9876   -2.5368    0.0000 C   0  0  2  0  0  0  0  0  0  0  0  0
    0.2731   -2.1243    0.0000 C   0  0  0  0  0  0  0  0  0  0  0  0
    0.2731   -1.2993    0.0000 N   0  0  0  0  0  0  0  0  0  0  0  0
   -0.4413   -2.5368    0.0000 O   0  0  0  0  0  0  0  0  0  0  0  0
    0.9876   -3.3618    0.0000 C   0  0  0  0  0  0  0  0  0  0  0  0
    1.0273   -0.1855    0.0000 C   0  0  0  0  0  0  0  0  0  0  0  0
    3.1311   -0.9693    0.0000 C   0  0  0  0  0  0  0  0  0  0  0  0
    0.3127   -0.5980    0.0000 C   0  0  0  0  0  0  0  0  0  0  0  0
    3.1320    0.8925    0.0000 H   0  0  0  0  0  0  0  0  0  0  0  0
    5.2893    3.2739    0.0000 H   0  0  0  0  0  0  0  0  0  0  0  0
    7.5816    0.7262    0.0000 H   0  0  0  0  0  0  0  0  0  0  0  0
    6.8452   -2.6131    0.0000 H   0  0  0  0  0  0  0  0  0  0  0  0
    3.8374   -3.5213    0.0000 H   0  0  0  0  0  0  0  0  0  0  0  0
    1.7021   -1.1398    0.0000 H   0  0  0  0  0  0  0  0  0  0  0  0
   -0.7110   -1.2715    0.0000 H   0  0  0  0  0  0  0  0  0  0  0  0
  1  2  1  0  0  0  0
  1  9  1  0  0  0  0
  2  3  1  0  0  0  0
  2  7  2  0  0  0  0
  3  4  1  0  0  0  0
  3 38  1  0  0  0  0
  4  5  1  0  0  0  0
  4 10  1  6  0  0  0
  5  6  1  0  0  0  0
  5  8  2  0  0  0  0
  6 39  1  0  0  0  0
  9 27  1  0  0  0  0
 11  6  1  0  0  0  0
 11 12  1  0  0  0  0
 12 13  2  0  0  0  0
 12 14  1  0  0  0  0
 14 15  1  0  0  0  0
 14 40  1  0  0  0  0
 15 16  1  0  0  0  0
 15 28  1  6  0  0  0
 16 17  1  0  0  0  0
 16 18  2  0  0  0  0
 17 19  1  0  0  0  0
 17 41  1  0  0  0  0
 19 20  1  0  0  0  0
 19 29  1  1  0  0  0
 20 21  1  0  0  0  0
 20 22  2  0  0  0  0
 21 23  1  0  0  0  0
 21 42  1  0  0  0  0
 23 24  1  0  0  0  0
 23 36  1  1  0  0  0
 24 25  1  0  0  0  0
 24 26  2  0  0  0  0
 25 30  1  0  0  0  0
 25 43  1  0  0  0  0
 27 35  1  0  0  0  0
 30 31  1  0  0  0  0
 30 34  1  1  0  0  0
 31 32  1  0  0  0  0
 31 33  2  0  0  0  0
 32 37  1  0  0  0  0
 32 44  1  0  0  0  0
 35 37  1  0  0  0  0
M  END
$$$$
O=C1CN=Cc2c(N1)ccc(c2)Cl
 OpenBabel07182308452D

 14 15  0  0  1  0  0  0  0  0999 V2000
    2.5467   -2.7000    0.0000 Cl  0  0  0  0  0  0  0  0  0  0  0  0
    2.3403    2.0183    0.0000 O   0  0  0  0  0  0  0  0  0  0  0  0
    2.1838    0.6300    0.0000 N   0  0  0  0  0  0  0  0  0  0  0  0
    4.0375    0.6300    0.0000 N   0  0  0  0  0  0  0  0  0  0  0  0
    3.1106   -0.5322    0.0000 C   0  0  0  0  0  0  0  0  0  0  0  0
    3.8540   -0.1742    0.0000 C   0  0  0  0  0  0  0  0  0  0  0  0
    2.3674   -0.1742    0.0000 C   0  0  0  0  0  0  0  0  0  0  0  0
    3.5231    1.2751    0.0000 C   0  0  0  0  0  0  0  0  0  0  0  0
    2.6981    1.2751    0.0000 C   0  0  0  0  0  0  0  0  0  0  0  0
    3.1881   -1.3880    0.0000 C   0  0  0  0  0  0  0  0  0  0  0  0
    1.6500   -0.6473    0.0000 C   0  0  0  0  0  0  0  0  0  0  0  0
    2.4818   -1.8776    0.0000 C   0  0  0  0  0  0  0  0  0  0  0  0
    1.7076   -1.5047    0.0000 C   0  0  0  0  0  0  0  0  0  0  0  0
    1.2240    0.8490    0.0000 H   0  0  0  0  0  0  0  0  0  0  0  0
  1 12  1  0  0  0  0
  2  9  2  0  0  0  0
  3  7  1  0  0  0  0
  3  9  1  0  0  0  0
  3 14  1  0  0  0  0
  4  6  2  0  0  0  0
  4  8  1  0  0  0  0
  5  6  1  0  0  0  0
  5  7  2  0  0  0  0
  5 10  1  0  0  0  0
  7 11  1  0  0  0  0
  8  9  1  0  0  0  0
 10 12  2  0  0  0  0
 11 13  2  0  0  0  0
 12 13  1  0  0  0  0
M  END
$$$$
F[C@@H]1COC[C@H]1O
 OpenBabel07182308452D

  9  9  0  0  1  0  0  0  0  0999 V2000
    6.2821   -0.1650    0.0000 F   0  0  0  0  0  0  0  0  0  0  0  0
    4.3467    0.7358    0.0000 O   0  0  0  0  0  0  0  0  0  0  0  0
    6.2852    1.6299    0.0000 O   0  0  0  0  0  0  0  0  0  0  0  0
    4.8305    0.0675    0.0000 C   0  0  0  0  0  0  0  0  0  0  0  0
    5.6170    1.1461    0.0000 C   0  0  1  0  0  0  0  0  0  0  0  0
    5.6155    0.3211    0.0000 C   0  0  2  0  0  0  0  0  0  0  0  0
    4.8328    1.4024    0.0000 C   0  0  0  0  0  0  0  0  0  0  0  0
    6.2041    0.6198    0.0000 H   0  0  0  0  0  0  0  0  0  0  0  0
    7.1707    1.2339    0.0000 H   0  0  0  0  0  0  0  0  0  0  0  0
  1  6  1  0  0  0  0
  2  4  1  0  0  0  0
  2  7  1  0  0  0  0
  3  9  1  0  0  0  0
  4  6  1  0  0  0  0
  5  3  1  0  0  0  0
  5  6  1  1  0  0  0
  5  7  1  0  0  0  0
  6  8  1  1  0  0  0
M  END
$$$$
Cc1ccccc1C
 OpenBabel07182308452D

  8  8  0  0  1  0  0  0  0  0999 V2000
   -0.7145   -0.4125    0.0000 C   0  0  0  0  0  0  0  0  0  0  0  0
   -0.7145    0.4125    0.0000 C   0  0  0  0  0  0  0  0  0  0  0  0
   -1.4289    0.8250    0.0000 C   0  0  0  0  0  0  0  0  0  0  0  0
   -2.1434    0.4125    0.0000 C   0  0  0  0  0  0  0  0  0  0  0  0
   -1.4289   -0.8250    0.0000 C   0  0  0  0  0  0  0  0  0  0  0  0
   -1.4289   -1.6500    0.0000 C   0  0  0  0  0  0  0  0  0  0  0  0
   -2.1434   -0.4125    0.0000 C   0  0  0  0  0  0  0  0  0  0  0  0
   -2.8579   -0.8250    0.0000 C   0  0  0  0  0  0  0  0  0  0  0  0
  1  5  2  0  0  0  0
  1  2  1  0  0  0  0
  2  3  2  0  0  0  0
  3  4  1  0  0  0  0
  5  7  1  0  0  0  0
  5  6  1  0  0  0  0
  7  4  2  0  0  0  0
  7  8  1  0  0  0  0
M  END
$$$$
O=C1C=C[C@]2(C(=C1)CC[C@@H]1[C@@H]2C(=O)C[C@]2([C@H]1CC[C@H]2O)C)C
 OpenBabel07182308452D

 26 29  0  0  0  0  0  0  0  0999 V2000
    2.1785   -1.0012    0.0000 C   0  0  0  0  0  0  0  0  0  0  0  0
    0.6794   -1.9838    0.0000 C   0  0  0  0  0  0  0  0  0  0  0  0
    2.1785    0.3336    0.0000 C   0  0  2  0  0  0  0  0  0  0  0  0
    0.6794    0.4911    0.0000 C   0  0  0  0  0  0  0  0  0  0  0  0
    2.6635   -0.3338    0.0000 C   0  0  0  0  0  0  0  0  0  0  0  0
   -0.7495   -1.1588    0.0000 C   0  0  2  0  0  0  0  0  0  0  0  0
   -0.0350    0.0786    0.0000 C   0  0  0  0  0  0  0  0  0  0  0  0
   -0.0350   -2.3962    0.0000 C   0  0  0  0  0  0  0  0  0  0  0  0
   -0.7495   -1.9838    0.0000 C   0  0  0  0  0  0  0  0  0  0  0  0
   -1.4640   -0.7463    0.0000 C   0  0  0  0  0  0  0  0  0  0  0  0
   -1.4640   -2.3962    0.0000 C   0  0  0  0  0  0  0  0  0  0  0  0
   -2.1783   -1.1588    0.0000 C   0  0  0  0  0  0  0  0  0  0  0  0
    0.6794   -1.1588    0.0000 C   0  0  2  0  0  0  0  0  0  0  0  0
    0.6794   -0.3338    0.0000 H   0  0  0  0  0  0  0  0  0  0  0  0
   -0.0350   -0.7463    0.0000 C   0  0  1  0  0  0  0  0  0  0  0  0
   -0.0350   -1.5712    0.0000 H   0  0  0  0  0  0  0  0  0  0  0  0
    1.3938    0.0786    0.0000 C   0  0  2  0  0  0  0  0  0  0  0  0
    1.3938    0.9036    0.0000 C   0  0  0  0  0  0  0  0  0  0  0  0
    1.3938   -0.7463    0.0000 C   0  0  1  0  0  0  0  0  0  0  0  0
    1.3938   -1.5712    0.0000 H   0  0  0  0  0  0  0  0  0  0  0  0
   -2.8929   -2.3962    0.0000 O   0  0  0  0  0  0  0  0  0  0  0  0
   -2.1783   -1.9838    0.0000 C   0  0  0  0  0  0  0  0  0  0  0  0
   -0.7495   -0.3338    0.0000 C   0  0  0  0  0  0  0  0  0  0  0  0
    2.8929    0.7461    0.0000 O   0  0  0  0  0  0  0  0  0  0  0  0
   -0.7495    0.4911    0.0000 O   0  0  0  0  0  0  0  0  0  0  0  0
    3.7330    0.2611    0.0000 H   0  0  0  0  0  0  0  0  0  0  0  0
  2  8  1  0  0  0  0
  3 17  1  6  0  0  0
  3  5  1  0  0  0  0
  3 24  1  0  0  0  0
  4  7  1  0  0  0  0
  5  1  1  0  0  0  0
  6 15  1  6  0  0  0
  6  9  1  0  0  0  0
  6 10  1  0  0  0  0
  6 23  1  0  0  0  0
  7 25  2  0  0  0  0
  8  9  1  0  0  0  0
  9 11  2  0  0  0  0
 10 12  2  0  0  0  0
 11 22  1  0  0  0  0
 12 22  1  0  0  0  0
 13 19  1  6  0  0  0
 13  2  1  0  0  0  0
 13 14  1  0  0  0  0
 15 13  1  1  0  0  0
 15  7  1  0  0  0  0
 15 16  1  0  0  0  0
 17 19  1  1  0  0  0
 17  4  1  0  0  0  0
 17 18  1  0  0  0  0
 19  1  1  0  0  0  0
 19 20  1  6  0  0  0
 22 21  2  0  0  0  0
 24 26  1  0  0  0  0
M  END
$$$$
CN1CCC(CC1)N
 OpenBabel07182308452D

  9  9  0  0  0  0  0  0  0  0999 V2000
    6.4037   -1.2377    0.0000 N   0  0  0  0  0  0  0  0  0  0  0  0
    5.1662    0.9058    0.0000 N   0  0  0  0  0  0  0  0  0  0  0  0
    5.5787    0.1912    0.0000 C   0  0  0  0  0  0  0  0  0  0  0  0
    5.1662   -0.5232    0.0000 C   0  0  0  0  0  0  0  0  0  0  0  0
    6.4037    0.1912    0.0000 C   0  0  0  0  0  0  0  0  0  0  0  0
    5.5787   -1.2377    0.0000 C   0  0  0  0  0  0  0  0  0  0  0  0
    6.8162   -0.5232    0.0000 C   0  0  0  0  0  0  0  0  0  0  0  0
    6.8162   -1.9522    0.0000 C   0  0  0  0  0  0  0  0  0  0  0  0
    5.6585    1.7584    0.0000 H   0  0  0  0  0  0  0  0  0  0  0  0
  1  6  1  0  0  0  0
  1  7  1  0  0  0  0
  1  8  1  0  0  0  0
  2  3  1  0  0  0  0
  2  9  1  0  0  0  0
  3  4  1  0  0  0  0
  3  5  1  0  0  0  0
  4  6  1  0  0  0  0
  5  7  1  0  0  0  0
M  END
$$$$
Cn1cnc2c1cccc2
 OpenBabel07182308452D

 10 11  0  0  0  0  0  0  0  0999 V2000
    3.8597    1.5697    0.0000 N   0  0  0  0  0  0  0  0  0  0  0  0
    3.8597    0.2418    0.0000 N   0  0  0  0  0  0  0  0  0  0  0  0
    4.3412    0.9058    0.0000 C   0  0  0  0  0  0  0  0  0  0  0  0
    3.0791    1.3183    0.0000 C   0  0  0  0  0  0  0  0  0  0  0  0
    4.1159    2.3539    0.0000 C   0  0  0  0  0  0  0  0  0  0  0  0
    3.0791    0.4933    0.0000 C   0  0  0  0  0  0  0  0  0  0  0  0
    2.3645    1.7308    0.0000 C   0  0  0  0  0  0  0  0  0  0  0  0
    2.3645    0.0808    0.0000 C   0  0  0  0  0  0  0  0  0  0  0  0
    1.6500    1.3183    0.0000 C   0  0  0  0  0  0  0  0  0  0  0  0
    1.6500    0.4933    0.0000 C   0  0  0  0  0  0  0  0  0  0  0  0
  1  3  1  0  0  0  0
  1  4  1  0  0  0  0
  1  5  1  0  0  0  0
  2  3  2  0  0  0  0
  2  6  1  0  0  0  0
  4  6  1  0  0  0  0
  4  7  2  0  0  0  0
  6  8  2  0  0  0  0
  7  9  1  0  0  0  0
  8 10  1  0  0  0  0
  9 10  2  0  0  0  0
M  END
$$$$
O[C@@H]1COC[C@@H]1O
 OpenBabel07182308452D

  9  9  0  0  1  0  0  0  0  0999 V2000
    4.9010    0.6808    0.0000 O   0  0  0  0  0  0  0  0  0  0  0  0
    2.8071    1.0969    0.0000 O   0  0  0  0  0  0  0  0  0  0  0  0
    3.8647    2.5471    0.0000 O   0  0  0  0  0  0  0  0  0  0  0  0
    3.6321    1.0955    0.0000 C   0  0  1  0  0  0  0  0  0  0  0  0
    4.1159    0.4272    0.0000 C   0  0  0  0  0  0  0  0  0  0  0  0
    4.1182    1.7621    0.0000 C   0  0  1  0  0  0  0  0  0  0  0  0
    4.9025    1.5058    0.0000 C   0  0  0  0  0  0  0  0  0  0  0  0
    2.3235    1.9378    0.0000 H   0  0  0  0  0  0  0  0  0  0  0  0
    4.5151    3.2668    0.0000 H   0  0  0  0  0  0  0  0  0  0  0  0
  1  5  1  0  0  0  0
  1  7  1  0  0  0  0
  2  8  1  0  0  0  0
  3  9  1  0  0  0  0
  4  2  1  6  0  0  0
  4  5  1  0  0  0  0
  4  6  1  0  0  0  0
  6  3  1  6  0  0  0
  6  7  1  0  0  0  0
M  END
$$$$
Nc1nc(=O)c2c([nH]1)[nH]cc2C
 OpenBabel07182308452D

 16 17  0  0  0  0  0  0  0  0999 V2000
   -1.9799    0.4537    0.0000 C   0  0  0  0  0  0  0  0  0  0  0  0
   -2.6812    0.9075    0.0000 C   0  0  0  0  0  0  0  0  0  0  0  0
   -3.4649    0.6599    0.0000 C   0  0  0  0  0  0  0  0  0  0  0  0
   -3.9598    1.3199    0.0000 C   0  0  0  0  0  0  0  0  0  0  0  0
   -3.4649    1.9799    0.0000 N   0  0  0  0  0  0  0  0  0  0  0  0
   -2.6812    1.7325    0.0000 C   0  0  0  0  0  0  0  0  0  0  0  0
   -3.8361   -0.1238    0.0000 C   0  0  0  0  0  0  0  0  0  0  0  0
   -4.6611   -0.1235    0.0000 N   0  0  0  0  0  0  0  0  0  0  0  0
   -5.0736    0.5361    0.0000 C   0  0  0  0  0  0  0  0  0  0  0  0
   -4.7848    1.2786    0.0000 N   0  0  0  0  0  0  0  0  0  0  0  0
   -5.8986    0.4949    0.0000 N   0  0  0  0  0  0  0  0  0  0  0  0
   -3.3824   -0.7425    0.0000 O   0  0  0  0  0  0  0  0  0  0  0  0
   -3.7660    2.9172    0.0000 H   0  0  0  0  0  0  0  0  0  0  0  0
   -5.3608    2.0770    0.0000 H   0  0  0  0  0  0  0  0  0  0  0  0
   -6.4328    1.3219    0.0000 H   0  0  0  0  0  0  0  0  0  0  0  0
   -6.3477   -0.3812    0.0000 H   0  0  0  0  0  0  0  0  0  0  0  0
  1  2  1  0  0  0  0
  2  3  1  0  0  0  0
  2  6  2  0  0  0  0
  3  4  2  0  0  0  0
  3  7  1  0  0  0  0
  4  5  1  0  0  0  0
  4 10  1  0  0  0  0
  5  6  1  0  0  0  0
  5 13  1  0  0  0  0
  7  8  1  0  0  0  0
  7 12  2  0  0  0  0
  8  9  2  0  0  0  0
  9 10  1  0  0  0  0
  9 11  1  0  0  0  0
 10 14  1  0  0  0  0
 11 15  1  0  0  0  0
 11 16  1  0  0  0  0
M  END
$$$$
Nc1nc2c([nH]1)cccc2
 OpenBabel07182308452D

 12 13  0  0  0  0  0  0  0  0999 V2000
    6.7171    0.5534    0.0000 N   0  0  0  0  0  0  0  0  0  0  0  0
    6.7171   -0.7743    0.0000 N   0  0  0  0  0  0  0  0  0  0  0  0
    8.0235   -0.1106    0.0000 N   0  0  0  0  0  0  0  0  0  0  0  0
    5.9365    0.3020    0.0000 C   0  0  0  0  0  0  0  0  0  0  0  0
    5.9365   -0.5231    0.0000 C   0  0  0  0  0  0  0  0  0  0  0  0
    4.5077    0.3020    0.0000 C   0  0  0  0  0  0  0  0  0  0  0  0
    5.2220    0.7144    0.0000 C   0  0  0  0  0  0  0  0  0  0  0  0
    5.2220   -0.9355    0.0000 C   0  0  0  0  0  0  0  0  0  0  0  0
    4.5077   -0.5231    0.0000 C   0  0  0  0  0  0  0  0  0  0  0  0
    7.1986   -0.1106    0.0000 C   0  0  0  0  0  0  0  0  0  0  0  0
    7.0230    1.4892    0.0000 H   0  0  0  0  0  0  0  0  0  0  0  0
    8.5157    0.7420    0.0000 H   0  0  0  0  0  0  0  0  0  0  0  0
  1  4  1  0  0  0  0
  1 10  1  0  0  0  0
  1 11  1  0  0  0  0
  2  5  1  0  0  0  0
  2 10  2  0  0  0  0
  3 10  1  0  0  0  0
  3 12  1  0  0  0  0
  4  5  2  0  0  0  0
  4  7  1  0  0  0  0
  5  8  1  0  0  0  0
  6  7  2  0  0  0  0
  6  9  1  0  0  0  0
  8  9  2  0  0  0  0
M  END
$$$$
O[C@@H]1[C@@H](C)O[C@H]([C@H]([C@H]1N)O)O
 OpenBabel07182308452D

 15 15  0  0  0  0  0  0  0  0999 V2000
    6.4303   -1.4437    0.0000 C   0  0  1  0  0  0  0  0  0  0  0  0
    5.7158   -1.0312    0.0000 O   0  0  0  0  0  0  0  0  0  0  0  0
    5.0013   -1.4437    0.0000 C   0  0  2  0  0  0  0  0  0  0  0  0
    5.0013   -2.2687    0.0000 C   0  0  2  0  0  0  0  0  0  0  0  0
    5.7158   -2.6812    0.0000 C   0  0  2  0  0  0  0  0  0  0  0  0
    6.4302   -2.2687    0.0000 C   0  0  2  0  0  0  0  0  0  0  0  0
    4.2868   -1.0312    0.0000 O   0  0  0  0  0  0  0  0  0  0  0  0
    7.1447   -1.0312    0.0000 C   0  0  0  0  0  0  0  0  0  0  0  0
    7.1447   -2.6812    0.0000 O   0  0  0  0  0  0  0  0  0  0  0  0
    5.7158   -3.5062    0.0000 N   0  0  0  0  0  0  0  0  0  0  0  0
    4.2868   -2.6812    0.0000 O   0  0  0  0  0  0  0  0  0  0  0  0
    7.1447   -3.6512    0.0000 H   0  0  0  0  0  0  0  0  0  0  0  0
    4.8325   -4.0162    0.0000 H   0  0  0  0  0  0  0  0  0  0  0  0
    6.5991   -4.0162    0.0000 H   0  0  0  0  0  0  0  0  0  0  0  0
    3.4468   -2.1962    0.0000 H   0  0  0  0  0  0  0  0  0  0  0  0
  1  2  1  0  0  0  0
  1  8  1  6  0  0  0
  3  2  1  0  0  0  0
  3  7  1  6  0  0  0
  4  3  1  0  0  0  0
  4  5  1  0  0  0  0
  4 11  1  6  0  0  0
  5  6  1  0  0  0  0
  5 10  1  6  0  0  0
  6  1  1  0  0  0  0
  6  9  1  1  0  0  0
  9 12  1  0  0  0  0
 10 13  1  0  0  0  0
 10 14  1  0  0  0  0
 11 15  1  0  0  0  0
M  END
$$$$
O[C@@H]1CC[C@@H](O)[C@H](O)C[C@]2(O)C[C@H](O)C[C@@H](O2)CC/C=C/C=C/C=C/C=C/CC/C=C/C=C/[C@@H]([C@H]([C@H]([C@@H](OC(=O)C[C@@H](C[C@@H](C1)O)O)C)C)O)C
 OpenBabel07182308452D

 60 61  0  0  0  0  0  0  0  0999 V2000
    4.2868   -0.2062    0.0000 C   0  0  0  0  0  0  0  0  0  0  0  0
    5.0013    0.2062    0.0000 C   0  0  0  0  0  0  0  0  0  0  0  0
    3.5724    0.2062    0.0000 C   0  0  0  0  0  0  0  0  0  0  0  0
    2.8579   -0.2062    0.0000 C   0  0  0  0  0  0  0  0  0  0  0  0
    2.1434    0.2062    0.0000 C   0  0  0  0  0  0  0  0  0  0  0  0
    1.4289   -0.2062    0.0000 C   0  0  0  0  0  0  0  0  0  0  0  0
    0.7144    0.2062    0.0000 C   0  0  0  0  0  0  0  0  0  0  0  0
    0.0000   -0.2062    0.0000 C   0  0  0  0  0  0  0  0  0  0  0  0
   -0.7144    0.2062    0.0000 C   0  0  0  0  0  0  0  0  0  0  0  0
   -1.4289   -0.2062    0.0000 C   0  0  0  0  0  0  0  0  0  0  0  0
   -2.1433    0.2062    0.0000 C   0  0  0  0  0  0  0  0  0  0  0  0
   -2.8579   -0.2062    0.0000 C   0  0  0  0  0  0  0  0  0  0  0  0
   -3.5723    0.2062    0.0000 C   0  0  0  0  0  0  0  0  0  0  0  0
   -4.2867   -0.2062    0.0000 C   0  0  0  0  0  0  0  0  0  0  0  0
   -5.0012    0.2062    0.0000 C   0  0  0  0  0  0  0  0  0  0  0  0
   -5.7158   -0.2062    0.0000 C   0  0  0  0  0  0  0  0  0  0  0  0
   -6.4302    0.2062    0.0000 C   0  0  2  0  0  0  0  0  0  0  0  0
   -7.1447   -0.2062    0.0000 C   0  0  0  0  0  0  0  0  0  0  0  0
   -6.4302    1.0312    0.0000 C   0  0  1  0  0  0  0  0  0  0  0  0
   -7.1447    1.4437    0.0000 O   0  0  0  0  0  0  0  0  0  0  0  0
   -5.7158    1.4437    0.0000 C   0  0  1  0  0  0  0  0  0  0  0  0
   -5.0012    1.0312    0.0000 C   0  0  0  0  0  0  0  0  0  0  0  0
   -5.7158    2.2687    0.0000 C   0  0  2  0  0  0  0  0  0  0  0  0
   -6.4302    2.6812    0.0000 C   0  0  0  0  0  0  0  0  0  0  0  0
   -5.0012    2.6812    0.0000 O   0  0  0  0  0  0  0  0  0  0  0  0
   -4.2867    2.2687    0.0000 C   0  0  0  0  0  0  0  0  0  0  0  0
   -3.5723    2.6812    0.0000 C   0  0  0  0  0  0  0  0  0  0  0  0
   -2.8579    2.2687    0.0000 C   0  0  1  0  0  0  0  0  0  0  0  0
   -2.1433    2.6812    0.0000 C   0  0  0  0  0  0  0  0  0  0  0  0
   -1.4289    2.2687    0.0000 C   0  0  1  0  0  0  0  0  0  0  0  0
   -0.7144    2.6812    0.0000 C   0  0  0  0  0  0  0  0  0  0  0  0
    0.0000    2.2687    0.0000 C   0  0  1  0  0  0  0  0  0  0  0  0
    0.7144    2.6812    0.0000 C   0  0  0  0  0  0  0  0  0  0  0  0
    1.4289    2.2687    0.0000 C   0  0  0  0  0  0  0  0  0  0  0  0
    2.1434    2.6812    0.0000 C   0  0  2  0  0  0  0  0  0  0  0  0
    2.8579    2.2687    0.0000 C   0  0  1  0  0  0  0  0  0  0  0  0
    3.5724    2.6812    0.0000 C   0  0  0  0  0  0  0  0  0  0  0  0
    4.2868    2.2687    0.0000 C   0  0  2  0  0  0  0  0  0  0  0  0
    5.0013    2.6812    0.0000 C   0  0  0  0  0  0  0  0  0  0  0  0
    5.7158    2.2687    0.0000 C   0  0  1  0  0  0  0  0  0  0  0  0
    5.7158    1.4437    0.0000 C   0  0  0  0  0  0  0  0  0  0  0  0
    5.0013    1.0312    0.0000 C   0  0  1  0  0  0  0  0  0  0  0  0
    6.4302    2.6812    0.0000 O   0  0  0  0  0  0  0  0  0  0  0  0
   -4.2867    1.4437    0.0000 O   0  0  0  0  0  0  0  0  0  0  0  0
   -2.8579    1.4437    0.0000 O   0  0  0  0  0  0  0  0  0  0  0  0
   -1.4289    1.4437    0.0000 O   0  0  0  0  0  0  0  0  0  0  0  0
    0.0000    1.4437    0.0000 O   0  0  0  0  0  0  0  0  0  0  0  0
    2.1434    3.5062    0.0000 O   0  0  0  0  0  0  0  0  0  0  0  0
    2.8579    1.4437    0.0000 O   0  0  0  0  0  0  0  0  0  0  0  0
    4.2868    1.4437    0.0000 O   0  0  0  0  0  0  0  0  0  0  0  0
    4.2868    3.0937    0.0000 O   0  0  0  0  0  0  0  0  0  0  0  0
    5.8673    0.5312    0.0000 H   0  0  0  0  0  0  0  0  0  0  0  0
   -7.1447    2.4137    0.0000 H   0  0  0  0  0  0  0  0  0  0  0  0
    7.2703    2.1962    0.0000 H   0  0  0  0  0  0  0  0  0  0  0  0
   -3.6979    0.9587    0.0000 H   0  0  0  0  0  0  0  0  0  0  0  0
   -2.2689    0.9587    0.0000 H   0  0  0  0  0  0  0  0  0  0  0  0
   -0.8400    0.9587    0.0000 H   0  0  0  0  0  0  0  0  0  0  0  0
    2.9834    3.9912    0.0000 H   0  0  0  0  0  0  0  0  0  0  0  0
    2.0179    0.9587    0.0000 H   0  0  0  0  0  0  0  0  0  0  0  0
    5.1268    3.5787    0.0000 H   0  0  0  0  0  0  0  0  0  0  0  0
  1  2  1  0  0  0  0
  1  3  1  0  0  0  0
  3  4  2  0  0  0  0
  4  5  1  0  0  0  0
  5  6  2  0  0  0  0
  6  7  1  0  0  0  0
  7  8  2  0  0  0  0
  8  9  1  0  0  0  0
  9 10  2  0  0  0  0
 10 11  1  0  0  0  0
 11 12  1  0  0  0  0
 12 13  1  0  0  0  0
 13 14  2  0  0  0  0
 14 15  1  0  0  0  0
 15 16  2  0  0  0  0
 17 16  1  0  0  0  0
 17 18  1  6  0  0  0
 19 17  1  0  0  0  0
 19 20  1  1  0  0  0
 19 21  1  0  0  0  0
 20 53  1  0  0  0  0
 21 22  1  6  0  0  0
 21 23  1  0  0  0  0
 23 24  1  6  0  0  0
 23 25  1  0  0  0  0
 25 26  1  0  0  0  0
 26 27  1  0  0  0  0
 26 44  2  0  0  0  0
 28 27  1  0  0  0  0
 28 29  1  0  0  0  0
 28 45  1  1  0  0  0
 30 29  1  0  0  0  0
 30 31  1  0  0  0  0
 30 46  1  1  0  0  0
 32 31  1  0  0  0  0
 32 33  1  0  0  0  0
 32 47  1  1  0  0  0
 33 34  1  0  0  0  0
 35 34  1  0  0  0  0
 35 36  1  0  0  0  0
 35 48  1  1  0  0  0
 36 37  1  0  0  0  0
 36 49  1  1  0  0  0
 38 37  1  0  0  0  0
 38 39  1  0  0  0  0
 38 50  1  0  0  0  0
 38 51  1  1  0  0  0
 40 39  1  0  0  0  0
 40 43  1  6  0  0  0
 41 40  1  0  0  0  0
 41 42  1  0  0  0  0
 42  2  1  0  0  0  0
 42 50  1  0  0  0  0
 42 52  1  1  0  0  0
 43 54  1  0  0  0  0
 45 55  1  0  0  0  0
 46 56  1  0  0  0  0
 47 57  1  0  0  0  0
 48 58  1  0  0  0  0
 49 59  1  0  0  0  0
 51 60  1  0  0  0  0
M  END
$$$$
O1CC=CC1
 OpenBabel07182308452D

  5  5  0  0  1  0  0  0  0  0999 V2000
    3.7465   -0.5827    0.0000 O   0  0  0  0  0  0  0  0  0  0  0  0
    3.0791   -0.0978    0.0000 C   0  0  0  0  0  0  0  0  0  0  0  0
    3.4916   -1.3673    0.0000 C   0  0  0  0  0  0  0  0  0  0  0  0
    2.4115   -0.5827    0.0000 C   0  0  0  0  0  0  0  0  0  0  0  0
    2.6665   -1.3673    0.0000 C   0  0  0  0  0  0  0  0  0  0  0  0
  1  2  1  0  0  0  0
  1  3  1  0  0  0  0
  2  4  1  0  0  0  0
  3  5  1  0  0  0  0
  4  5  2  0  0  0  0
M  END
$$$$
CC1CNc2c(N1)c(=O)[nH]c(n2)N
 OpenBabel07182308452D

 17 18  0  0  0  0  0  0  0  0999 V2000
   -3.9296   -2.6813    0.0000 N   0  0  0  0  0  0  0  0  0  0  0  0
   -3.2151   -2.2688    0.0000 C   0  0  0  0  0  0  0  0  0  0  0  0
   -3.2151   -1.4438    0.0000 C   0  0  0  0  0  0  0  0  0  0  0  0
   -2.5006   -2.6813    0.0000 N   0  0  0  0  0  0  0  0  0  0  0  0
   -4.6440   -1.4438    0.0000 N   0  0  0  0  0  0  0  0  0  0  0  0
   -1.7862   -2.2688    0.0000 C   0  0  0  0  0  0  0  0  0  0  0  0
   -1.7862   -1.4438    0.0000 C   0  0  3  0  0  0  0  0  0  0  0  0
   -1.0716   -1.0313    0.0000 C   0  0  0  0  0  0  0  0  0  0  0  0
   -3.9296   -1.0313    0.0000 C   0  0  0  0  0  0  0  0  0  0  0  0
   -3.9296   -0.2063    0.0000 O   0  0  0  0  0  0  0  0  0  0  0  0
   -4.6440   -2.2688    0.0000 C   0  0  0  0  0  0  0  0  0  0  0  0
   -5.3585   -2.6813    0.0000 N   0  0  0  0  0  0  0  0  0  0  0  0
   -2.5006   -1.0313    0.0000 N   0  0  0  0  0  0  0  0  0  0  0  0
   -2.5006   -3.6658    0.0000 H   0  0  0  0  0  0  0  0  0  0  0  0
   -5.4966   -0.9516    0.0000 H   0  0  0  0  0  0  0  0  0  0  0  0
   -6.2111   -2.1890    0.0000 H   0  0  0  0  0  0  0  0  0  0  0  0
   -5.3585   -3.6658    0.0000 H   0  0  0  0  0  0  0  0  0  0  0  0
  1  2  1  0  0  0  0
  2  3  2  0  0  0  0
  2  4  1  0  0  0  0
  3 13  1  0  0  0  0
  3  9  1  0  0  0  0
  4 14  1  0  0  0  0
  5 15  1  0  0  0  0
  6  4  1  0  0  0  0
  6  7  1  0  0  0  0
  7  8  1  0  0  0  0
  9  5  1  0  0  0  0
  9 10  2  0  0  0  0
 11  1  2  0  0  0  0
 11  5  1  0  0  0  0
 11 12  1  0  0  0  0
 12 16  1  0  0  0  0
 12 17  1  0  0  0  0
 13  7  1  0  0  0  0
M  END
$$$$
CN1CCC2(C(C1Cc1c2cc(cc1)O)C)C
 OpenBabel07182308452D

 18 20  0  0  1  0  0  0  0  0999 V2000
   -1.6277   -0.0004    0.0000 C   0  0  0  0  0  0  0  0  0  0  0  0
   -2.3422    0.4120    0.0000 C   0  0  0  0  0  0  0  0  0  0  0  0
   -3.0567   -0.0004    0.0000 C   0  0  0  0  0  0  0  0  0  0  0  0
   -3.0567   -0.8255    0.0000 C   0  0  0  0  0  0  0  0  0  0  0  0
   -2.3422   -1.2380    0.0000 C   0  0  0  0  0  0  0  0  0  0  0  0
   -1.6277   -0.8255    0.0000 C   0  0  0  0  0  0  0  0  0  0  0  0
   -0.9132    0.4120    0.0000 C   0  0  0  0  0  0  0  0  0  0  0  0
   -0.1988   -0.0004    0.0000 C   0  0  3  0  0  0  0  0  0  0  0  0
   -0.1988   -0.8255    0.0000 C   0  0  3  0  0  0  0  0  0  0  0  0
   -0.9133   -1.2380    0.0000 C   0  0  3  0  0  0  0  0  0  0  0  0
    1.3113    0.0583    0.0000 N   0  0  0  0  0  0  0  0  0  0  0  0
    2.0479   -1.2086    0.0000 C   0  0  0  0  0  0  0  0  0  0  0  0
    0.8988   -2.2103    0.0000 C   0  0  0  0  0  0  0  0  0  0  0  0
    0.5156   -1.2380    0.0000 C   0  0  0  0  0  0  0  0  0  0  0  0
   -1.3146   -1.9588    0.0000 C   0  0  0  0  0  0  0  0  0  0  0  0
    1.7087    0.7814    0.0000 C   0  0  0  0  0  0  0  0  0  0  0  0
   -3.7712   -1.2380    0.0000 O   0  0  0  0  0  0  0  0  0  0  0  0
   -4.5827   -0.7695    0.0000 H   0  0  0  0  0  0  0  0  0  0  0  0
  1  2  1  0  0  0  0
  1  7  1  0  0  0  0
  2  3  2  0  0  0  0
  3  4  1  0  0  0  0
  4  5  2  0  0  0  0
  4 17  1  0  0  0  0
  5  6  1  0  0  0  0
  6  1  2  0  0  0  0
  7  8  1  0  0  0  0
  8  9  1  0  0  0  0
  8 11  1  0  0  0  0
  9 10  1  0  0  0  0
  9 14  1  0  0  0  0
 10  6  1  0  0  0  0
 10 13  1  0  0  0  0
 10 15  1  0  0  0  0
 11 16  1  0  0  0  0
 12 11  1  0  0  0  0
 13 12  1  0  0  0  0
 17 18  1  0  0  0  0
M  END
$$$$
CC(=C)C
 OpenBabel07182308452D

  4  3  0  0  1  0  0  0  0  0999 V2000
    2.5337    0.7814    0.0000 C   0  0  0  0  0  0  0  0  0  0  0  0
    2.9462    1.4959    0.0000 C   0  0  0  0  0  0  0  0  0  0  0  0
    3.7712    1.4959    0.0000 C   0  0  0  0  0  0  0  0  0  0  0  0
    2.5337    2.2103    0.0000 C   0  0  0  0  0  0  0  0  0  0  0  0
  1  2  2  0  0  0  0
  2  3  1  0  0  0  0
  2  4  1  0  0  0  0
M  END
$$$$
[Mg+2]
 OpenBabel07182308452D

  1  0  0  0  0  0  0  0  0  0999 V2000
    0.0000    0.0000    0.0000 Mg  0  2  0  0  0 15  0  0  0  0  0  0
M  CHG  1   1   2
M  END
$$$$
[O-]S(=O)(=O)[O-]
 OpenBabel07182308452D

  5  4  0  0  0  0  0  0  0  0999 V2000
    2.3645    0.8250    0.0000 O   0  5  0  0  0  0  0  0  0  0  0  0
    2.3645   -0.8250    0.0000 O   0  5  0  0  0  0  0  0  0  0  0  0
    3.1895    0.0000    0.0000 O   0  0  0  0  0  0  0  0  0  0  0  0
    2.3645    0.0000    0.0000 S   0  0  0  0  0  0  0  0  0  0  0  0
    1.5395    0.0000    0.0000 O   0  0  0  0  0  0  0  0  0  0  0  0
  1  4  1  0  0  0  0
  4  2  1  0  0  0  0
  4  3  2  0  0  0  0
  4  5  2  0  0  0  0
M  CHG  2   1  -1   2  -1
M  END
$$$$
O[C@@H]1C[C@@H]([C@@H]([C@H]1C)C)O
 OpenBabel07182308452D

 11 11  0  0  1  0  0  0  0  0999 V2000
   -0.2169    0.6674    0.0000 C   0  0  2  0  0  0  0  0  0  0  0  0
    0.5678    0.4125    0.0000 C   0  0  1  0  0  0  0  0  0  0  0  0
    0.5678   -0.4125    0.0000 C   0  0  2  0  0  0  0  0  0  0  0  0
   -0.7018    0.0000    0.0000 C   0  0  0  0  0  0  0  0  0  0  0  0
   -0.2169   -0.6674    0.0000 C   0  0  1  0  0  0  0  0  0  0  0  0
    1.2822   -0.8250    0.0000 C   0  0  0  0  0  0  0  0  0  0  0  0
    1.2822    0.8250    0.0000 C   0  0  0  0  0  0  0  0  0  0  0  0
   -0.4718    1.4521    0.0000 O   0  0  0  0  0  0  0  0  0  0  0  0
   -0.4718   -1.4521    0.0000 O   0  0  0  0  0  0  0  0  0  0  0  0
    0.1773    2.1729    0.0000 H   0  0  0  0  0  0  0  0  0  0  0  0
   -1.4206   -1.6538    0.0000 H   0  0  0  0  0  0  0  0  0  0  0  0
  1  8  1  6  0  0  0
  1  4  1  0  0  0  0
  2  1  1  0  0  0  0
  2  7  1  6  0  0  0
  3  2  1  0  0  0  0
  3  6  1  1  0  0  0
  3  5  1  0  0  0  0
  4  5  1  0  0  0  0
  5  9  1  6  0  0  0
  8 10  1  0  0  0  0
  9 11  1  0  0  0  0
M  END
$$$$
Oc1ccc2c(c1)CC[C@@H]1[C@@H]2CC[C@]2([C@H]1CCC2=O)C
 OpenBabel07182308452D

 24 27  0  0  1  0  0  0  0  0999 V2000
    7.5769    1.7954    0.0000 O   0  0  0  0  0  0  0  0  0  0  0  0
    2.0916   -1.7576    0.0000 O   0  0  0  0  0  0  0  0  0  0  0  0
    6.5402   -0.0648    0.0000 C   0  0  2  0  0  0  0  0  0  0  0  0
    6.5402    0.7600    0.0000 C   0  0  2  0  0  0  0  0  0  0  0  0
    5.8259   -0.4773    0.0000 C   0  0  1  0  0  0  0  0  0  0  0  0
    5.1114   -0.0648    0.0000 C   0  0  2  0  0  0  0  0  0  0  0  0
    5.8259    1.1726    0.0000 C   0  0  0  0  0  0  0  0  0  0  0  0
    7.3206   -0.3162    0.0000 C   0  0  0  0  0  0  0  0  0  0  0  0
    5.1114    0.7600    0.0000 C   0  0  0  0  0  0  0  0  0  0  0  0
    5.8392   -1.3363    0.0000 C   0  0  0  0  0  0  0  0  0  0  0  0
    7.3206    1.0114    0.0000 C   0  0  0  0  0  0  0  0  0  0  0  0
    7.8021    0.3477    0.0000 C   0  0  0  0  0  0  0  0  0  0  0  0
    6.5402    1.5851    0.0000 C   0  0  0  0  0  0  0  0  0  0  0  0
    4.3609   -0.4830    0.0000 C   0  0  0  0  0  0  0  0  0  0  0  0
    5.0982   -1.7716    0.0000 C   0  0  0  0  0  0  0  0  0  0  0  0
    4.3542   -1.3421    0.0000 C   0  0  0  0  0  0  0  0  0  0  0  0
    3.5964   -0.0176    0.0000 C   0  0  0  0  0  0  0  0  0  0  0  0
    3.5827   -1.7954    0.0000 C   0  0  0  0  0  0  0  0  0  0  0  0
    2.8143   -0.4532    0.0000 C   0  0  0  0  0  0  0  0  0  0  0  0
    2.8075   -1.3480    0.0000 C   0  0  0  0  0  0  0  0  0  0  0  0
    6.6100   -0.7209    0.0000 H   0  0  0  0  0  0  0  0  0  0  0  0
    6.3998   -0.8027    0.0000 H   0  0  0  0  0  0  0  0  0  0  0  0
    5.6830    0.2652    0.0000 H   0  0  0  0  0  0  0  0  0  0  0  0
    1.2820   -1.2859    0.0000 H   0  0  0  0  0  0  0  0  0  0  0  0
  1 11  2  0  0  0  0
  2 20  1  0  0  0  0
  2 24  1  0  0  0  0
  3  4  1  6  0  0  0
  3  8  1  0  0  0  0
  3 21  1  0  0  0  0
  4  7  1  0  0  0  0
  4 11  1  0  0  0  0
  4 13  1  1  0  0  0
  5  3  1  6  0  0  0
  5 10  1  0  0  0  0
  5 22  1  0  0  0  0
  6  5  1  1  0  0  0
  6  9  1  0  0  0  0
  6 14  1  0  0  0  0
  6 23  1  0  0  0  0
  7  9  1  0  0  0  0
  8 12  1  0  0  0  0
 10 15  1  0  0  0  0
 11 12  1  0  0  0  0
 14 16  2  0  0  0  0
 14 17  1  0  0  0  0
 15 16  1  0  0  0  0
 16 18  1  0  0  0  0
 17 19  2  0  0  0  0
 18 20  2  0  0  0  0
 19 20  1  0  0  0  0
M  END
$$$$
O=c1n(C)nc2n1cccc2
 OpenBabel07182308452D

 11 12  0  0  0  0  0  0  0  0999 V2000
    4.1159    3.5820    0.0000 O   0  0  0  0  0  0  0  0  0  0  0  0
    4.3412    2.1339    0.0000 N   0  0  0  0  0  0  0  0  0  0  0  0
    3.0791    2.5464    0.0000 N   0  0  0  0  0  0  0  0  0  0  0  0
    3.8597    1.4699    0.0000 N   0  0  0  0  0  0  0  0  0  0  0  0
    5.1662    2.1339    0.0000 C   0  0  0  0  0  0  0  0  0  0  0  0
    3.8597    2.7978    0.0000 C   0  0  0  0  0  0  0  0  0  0  0  0
    3.0791    1.7214    0.0000 C   0  0  0  0  0  0  0  0  0  0  0  0
    2.3645    2.9589    0.0000 C   0  0  0  0  0  0  0  0  0  0  0  0
    2.3645    1.3089    0.0000 C   0  0  0  0  0  0  0  0  0  0  0  0
    1.6500    2.5464    0.0000 C   0  0  0  0  0  0  0  0  0  0  0  0
    1.6500    1.7214    0.0000 C   0  0  0  0  0  0  0  0  0  0  0  0
  1  6  2  0  0  0  0
  2  4  1  0  0  0  0
  2  5  1  0  0  0  0
  2  6  1  0  0  0  0
  3  6  1  0  0  0  0
  3  7  1  0  0  0  0
  3  8  1  0  0  0  0
  4  7  2  0  0  0  0
  7  9  1  0  0  0  0
  8 10  2  0  0  0  0
  9 11  2  0  0  0  0
 10 11  1  0  0  0  0
M  END
$$$$
CC1C2CCC(C1(C)C)C2
 OpenBabel07182308452D

 10 11  0  0  1  0  0  0  0  0999 V2000
    1.9706    0.0669    0.0000 C   0  0  0  0  0  0  0  0  0  0  0  0
    2.3065   -0.5150    0.0000 C   0  0  3  0  0  0  0  0  0  0  0  0
    3.6440    0.8057    0.0000 C   0  0  3  0  0  0  0  0  0  0  0  0
    3.4701    0.1567    0.0000 C   0  0  3  0  0  0  0  0  0  0  0  0
    3.1491    1.4658    0.0000 C   0  0  0  0  0  0  0  0  0  0  0  0
    4.8746    0.2959    0.0000 C   0  0  0  0  0  0  0  0  0  0  0  0
    4.7008   -0.3529    0.0000 C   0  0  0  0  0  0  0  0  0  0  0  0
    1.5480    0.5889    0.0000 C   0  0  0  0  0  0  0  0  0  0  0  0
    1.3436   -0.1739    0.0000 C   0  0  0  0  0  0  0  0  0  0  0  0
    1.7845   -0.9377    0.0000 C   0  0  0  0  0  0  0  0  0  0  0  0
  1  2  1  0  0  0  0
  1  3  1  0  0  0  0
  1  8  1  0  0  0  0
  1  9  1  0  0  0  0
  2  4  1  0  0  0  0
  2 10  1  0  0  0  0
  3  5  1  0  0  0  0
  3  6  1  0  0  0  0
  4  5  1  0  0  0  0
  4  7  1  0  0  0  0
  6  7  1  0  0  0  0
M  END
$$$$
O1CC1
 OpenBabel07182308452D

  3  3  0  0  1  0  0  0  0  0999 V2000
    1.9889    1.5189    0.0000 O   0  0  0  0  0  0  0  0  0  0  0  0
    1.5764    0.8043    0.0000 C   0  0  0  0  0  0  0  0  0  0  0  0
    2.4014    0.8043    0.0000 C   0  0  0  0  0  0  0  0  0  0  0  0
  1  2  1  0  0  0  0
  1  3  1  0  0  0  0
  2  3  1  0  0  0  0
M  END
$$$$
CS(=O)(=O)O
 OpenBabel07182308452D

  6  5  0  0  0  0  0  0  0  0999 V2000
    2.8075   -0.2615    0.0000 S   0  0  0  0  0  0  0  0  0  0  0  0
    2.0930   -0.6740    0.0000 O   0  0  0  0  0  0  0  0  0  0  0  0
    2.3950    0.4529    0.0000 O   0  0  0  0  0  0  0  0  0  0  0  0
    3.2200   -0.9760    0.0000 O   0  0  0  0  0  0  0  0  0  0  0  0
    3.5220    0.1510    0.0000 C   0  0  0  0  0  0  0  0  0  0  0  0
    1.2530   -0.1890    0.0000 H   0  0  0  0  0  0  0  0  0  0  0  0
  1  2  1  0  0  0  0
  1  3  2  0  0  0  0
  1  4  2  0  0  0  0
  1  5  1  0  0  0  0
  2  6  1  0  0  0  0
M  END
$$$$
CCCC#N
 OpenBabel07182308452D

  5  4  0  0  1  0  0  0  0  0999 V2000
    2.1435    0.4273    0.0000 N   0  0  0  0  0  0  0  0  0  0  0  0
    3.7935    0.4273    0.0000 C   0  0  0  0  0  0  0  0  0  0  0  0
    4.6185    0.4273    0.0000 C   0  0  0  0  0  0  0  0  0  0  0  0
    5.0310    1.1418    0.0000 C   0  0  0  0  0  0  0  0  0  0  0  0
    2.9685    0.4273    0.0000 C   0  0  0  0  0  0  0  0  0  0  0  0
  1  5  3  0  0  0  0
  2  3  1  0  0  0  0
  2  5  1  0  0  0  0
  3  4  1  0  0  0  0
M  END
$$$$
O=C1NC(=O)C(N1)(C)C
 OpenBabel07182308452D

 10 10  0  0  0  0  0  0  0  0999 V2000
    4.6956   -2.1231    0.0000 O   0  0  0  0  0  0  0  0  0  0  0  0
    6.1477    0.3920    0.0000 O   0  0  0  0  0  0  0  0  0  0  0  0
    5.2224   -0.7505    0.0000 N   0  0  0  0  0  0  0  0  0  0  0  0
    6.5282   -1.0281    0.0000 N   0  0  0  0  0  0  0  0  0  0  0  0
    6.1157   -1.7425    0.0000 C   0  0  0  0  0  0  0  0  0  0  0  0
    5.3087   -1.5710    0.0000 C   0  0  0  0  0  0  0  0  0  0  0  0
    6.8302   -2.1550    0.0000 C   0  0  0  0  0  0  0  0  0  0  0  0
    5.9442   -2.5496    0.0000 C   0  0  0  0  0  0  0  0  0  0  0  0
    5.9762   -0.4150    0.0000 C   0  0  0  0  0  0  0  0  0  0  0  0
    7.5073   -0.9252    0.0000 H   0  0  0  0  0  0  0  0  0  0  0  0
  1  6  2  0  0  0  0
  2  9  2  0  0  0  0
  3  6  1  0  0  0  0
  3  9  1  0  0  0  0
  4  5  1  0  0  0  0
  4  9  1  0  0  0  0
  4 10  1  0  0  0  0
  5  6  1  0  0  0  0
  5  7  1  0  0  0  0
  5  8  1  0  0  0  0
M  END
$$$$
O=c1[nH]c2cccnc2[nH]c2c1cccc2
 OpenBabel07182308452D

 17 19  0  0  0  0  0  0  0  0999 V2000
    3.2576    3.5435    0.0000 O   0  0  0  0  0  0  0  0  0  0  0  0
    4.0280    0.9934    0.0000 N   0  0  0  0  0  0  0  0  0  0  0  0
    4.4404    2.8003    0.0000 N   0  0  0  0  0  0  0  0  0  0  0  0
    5.3919    0.7572    0.0000 N   0  0  0  0  0  0  0  0  0  0  0  0
    3.2848    1.3512    0.0000 C   0  0  0  0  0  0  0  0  0  0  0  0
    4.7712    1.3512    0.0000 C   0  0  0  0  0  0  0  0  0  0  0  0
    3.1012    2.1554    0.0000 C   0  0  0  0  0  0  0  0  0  0  0  0
    4.9547    2.1554    0.0000 C   0  0  0  0  0  0  0  0  0  0  0  0
    2.6639    0.7572    0.0000 C   0  0  0  0  0  0  0  0  0  0  0  0
    3.6155    2.8003    0.0000 C   0  0  0  0  0  0  0  0  0  0  0  0
    2.2841    2.4214    0.0000 C   0  0  0  0  0  0  0  0  0  0  0  0
    5.7717    2.4213    0.0000 C   0  0  0  0  0  0  0  0  0  0  0  0
    1.8410    1.0042    0.0000 C   0  0  0  0  0  0  0  0  0  0  0  0
    1.6498    1.8419    0.0000 C   0  0  0  0  0  0  0  0  0  0  0  0
    6.4061    1.8418    0.0000 C   0  0  0  0  0  0  0  0  0  0  0  0
    6.2149    1.0041    0.0000 C   0  0  0  0  0  0  0  0  0  0  0  0
    4.8676    3.6873    0.0000 H   0  0  0  0  0  0  0  0  0  0  0  0
  1 10  2  0  0  0  0
  2  5  1  0  0  0  0
  2  6  1  0  0  0  0
  3  8  1  0  0  0  0
  3 10  1  0  0  0  0
  3 17  1  0  0  0  0
  4  6  1  0  0  0  0
  4 16  2  0  0  0  0
  5  7  1  0  0  0  0
  5  9  2  0  0  0  0
  6  8  2  0  0  0  0
  7 10  1  0  0  0  0
  7 11  2  0  0  0  0
  8 12  1  0  0  0  0
  9 13  1  0  0  0  0
 11 14  1  0  0  0  0
 12 15  2  0  0  0  0
 13 14  2  0  0  0  0
 15 16  1  0  0  0  0
M  END
$$$$
O=c1[nH]nc[nH]1
 OpenBabel07182308452D

  8  8  0  0  1  0  0  0  0  0999 V2000
    8.9635   -7.0422    0.0000 C   0  0  0  0  0  0  0  0  0  0  0  0
    8.2374   -6.6229    0.0000 N   0  0  0  0  0  0  0  0  0  0  0  0
    7.6141   -7.1839    0.0000 C   0  0  0  0  0  0  0  0  0  0  0  0
    7.9550   -7.9500    0.0000 N   0  0  0  0  0  0  0  0  0  0  0  0
    8.7890   -7.8625    0.0000 N   0  0  0  0  0  0  0  0  0  0  0  0
    6.8141   -7.0139    0.0000 O   0  0  0  0  0  0  0  0  0  0  0  0
    8.1346   -5.6438    0.0000 H   0  0  0  0  0  0  0  0  0  0  0  0
    7.4626   -8.8025    0.0000 H   0  0  0  0  0  0  0  0  0  0  0  0
  1  2  1  0  0  0  0
  1  5  2  0  0  0  0
  2  3  1  0  0  0  0
  2  7  1  0  0  0  0
  3  4  1  0  0  0  0
  3  6  2  0  0  0  0
  4  5  1  0  0  0  0
  4  8  1  0  0  0  0
M  END
$$$$
CN1CC[C@@]23c4c(C1)cccc4O[C@H]3C[C@H](C=C2)O
 OpenBabel07182308452D

 21 24  0  0  0  0  0  0  0  0999 V2000
    1.0304    1.5493    0.0000 C   0  0  0  0  0  0  0  0  0  0  0  0
    1.0305    0.1204    0.0000 C   0  0  2  0  0  0  0  0  0  0  0  0
    1.8554    0.1203    0.0000 C   0  0  0  0  0  0  0  0  0  0  0  0
    2.2679    0.8348    0.0000 C   0  0  0  0  0  0  0  0  0  0  0  0
   -0.9819   -1.2879    0.0000 C   0  0  0  0  0  0  0  0  0  0  0  0
   -0.2674   -1.7005    0.0000 C   0  0  0  0  0  0  0  0  0  0  0  0
    1.8555    1.5493    0.0000 C   0  0  2  0  0  0  0  0  0  0  0  0
    2.2680    2.2638    0.0000 O   0  0  0  0  0  0  0  0  0  0  0  0
   -0.2673   -0.0504    0.0000 C   0  0  0  0  0  0  0  0  0  0  0  0
   -0.1206    0.7614    0.0000 O   0  0  0  0  0  0  0  0  0  0  0  0
    0.6180    0.8349    0.0000 C   0  0  1  0  0  0  0  0  0  0  0  0
    0.2055    1.5493    0.0000 H   0  0  0  0  0  0  0  0  0  0  0  0
   -0.9819   -0.4628    0.0000 C   0  0  0  0  0  0  0  0  0  0  0  0
    0.4471   -0.4628    0.0000 C   0  0  0  0  0  0  0  0  0  0  0  0
    0.4471   -1.2879    0.0000 C   0  0  0  0  0  0  0  0  0  0  0  0
    1.0921   -1.8023    0.0000 C   0  0  0  0  0  0  0  0  0  0  0  0
    2.2544   -0.8755    0.0000 C   0  0  0  0  0  0  0  0  0  0  0  0
    1.8964   -0.1322    0.0000 C   0  0  0  0  0  0  0  0  0  0  0  0
    1.8964   -1.6188    0.0000 N   0  0  0  0  0  0  0  0  0  0  0  0
    2.4108   -2.2638    0.0000 C   0  0  0  0  0  0  0  0  0  0  0  0
    3.2380    2.2638    0.0000 H   0  0  0  0  0  0  0  0  0  0  0  0
  1 11  1  0  0  0  0
  1  7  1  0  0  0  0
  2 11  1  6  0  0  0
  2 18  1  0  0  0  0
  3  4  2  0  0  0  0
  3  2  1  0  0  0  0
  4  7  1  0  0  0  0
  5  6  2  0  0  0  0
  5 13  1  0  0  0  0
  6 15  1  0  0  0  0
  7  8  1  1  0  0  0
  8 21  1  0  0  0  0
  9 13  2  0  0  0  0
  9 10  1  0  0  0  0
 10 11  1  0  0  0  0
 11 12  1  6  0  0  0
 14  9  1  0  0  0  0
 14  2  1  0  0  0  0
 15 16  1  0  0  0  0
 15 14  2  0  0  0  0
 16 19  1  0  0  0  0
 17 18  1  0  0  0  0
 19 17  1  0  0  0  0
 19 20  1  0  0  0  0
M  END
$$$$
OP(=O)(F)O
 OpenBabel07182308452D

  5  4  0  0  0  0  0  0  0  0999 V2000
    0.6822    0.6159    0.0000 P   0  0  0  0  0  0  0  0  0  0  0  0
   -0.1743    0.6159    0.0000 O   0  0  0  0  0  0  0  0  0  0  0  0
    0.6822   -0.2065    0.0000 O   0  0  0  0  0  0  0  0  0  0  0  0
    0.6519    1.4422    0.0000 O   0  0  0  0  0  0  0  0  0  0  0  0
    1.4782    0.6121    0.0000 F   0  0  0  0  0  0  0  0  0  0  0  0
  1  2  1  0  0  0  0
  1  3  1  0  0  0  0
  1  4  2  0  0  0  0
  1  5  1  0  0  0  0
M  END
$$$$
Clc1cn(c(n1)C)C
 OpenBabel07182308452D

  8  8  0  0  0  0  0  0  0  0999 V2000
    3.0873   -1.7146    0.0000 Cl  0  0  0  0  0  0  0  0  0  0  0  0
    4.3161    0.0312    0.0000 N   0  0  0  0  0  0  0  0  0  0  0  0
    3.0103   -0.2464    0.0000 N   0  0  0  0  0  0  0  0  0  0  0  0
    3.5623    0.3667    0.0000 C   0  0  0  0  0  0  0  0  0  0  0  0
    3.3908    1.1738    0.0000 C   0  0  0  0  0  0  0  0  0  0  0  0
    5.0305    0.4437    0.0000 C   0  0  0  0  0  0  0  0  0  0  0  0
    4.2299   -0.7893    0.0000 C   0  0  0  0  0  0  0  0  0  0  0  0
    3.4228   -0.9608    0.0000 C   0  0  0  0  0  0  0  0  0  0  0  0
  1  8  1  0  0  0  0
  2  4  1  0  0  0  0
  2  6  1  0  0  0  0
  2  7  1  0  0  0  0
  3  4  2  0  0  0  0
  3  8  1  0  0  0  0
  4  5  1  0  0  0  0
  7  8  2  0  0  0  0
M  END
$$$$
CC1CCCCN1C
 OpenBabel07182308452D

  8  8  0  0  1  0  0  0  0  0999 V2000
    2.4206    1.4580    0.0000 N   0  0  0  0  0  0  0  0  0  0  0  0
    3.1350    1.0455    0.0000 C   0  0  3  0  0  0  0  0  0  0  0  0
    3.8495    1.4580    0.0000 C   0  0  0  0  0  0  0  0  0  0  0  0
    3.1350    0.2205    0.0000 C   0  0  0  0  0  0  0  0  0  0  0  0
    3.8495    2.2830    0.0000 C   0  0  0  0  0  0  0  0  0  0  0  0
    2.4206    2.2830    0.0000 C   0  0  0  0  0  0  0  0  0  0  0  0
    3.1350    2.6955    0.0000 C   0  0  0  0  0  0  0  0  0  0  0  0
    1.7061    1.0455    0.0000 C   0  0  0  0  0  0  0  0  0  0  0  0
  1  2  1  0  0  0  0
  1  6  1  0  0  0  0
  1  8  1  0  0  0  0
  2  3  1  0  0  0  0
  2  4  1  0  0  0  0
  3  5  1  0  0  0  0
  5  7  1  0  0  0  0
  6  7  1  0  0  0  0
M  END
$$$$
Nc1ccc2c(c1)Nc1c(S2)cccc1
 OpenBabel07182308452D

 16 18  0  0  0  0  0  0  0  0999 V2000
    4.5073   -2.6666    0.0000 S   0  0  0  0  0  0  0  0  0  0  0  0
    4.5073   -1.0169    0.0000 N   0  0  0  0  0  0  0  0  0  0  0  0
    7.4192   -0.9969    0.0000 N   0  0  0  0  0  0  0  0  0  0  0  0
    5.2216   -1.4293    0.0000 C   0  0  0  0  0  0  0  0  0  0  0  0
    3.7929   -1.4293    0.0000 C   0  0  0  0  0  0  0  0  0  0  0  0
    5.2216   -2.2542    0.0000 C   0  0  0  0  0  0  0  0  0  0  0  0
    3.7929   -2.2542    0.0000 C   0  0  0  0  0  0  0  0  0  0  0  0
    5.9591   -0.9883    0.0000 C   0  0  0  0  0  0  0  0  0  0  0  0
    3.0555   -0.9883    0.0000 C   0  0  0  0  0  0  0  0  0  0  0  0
    5.9591   -2.6951    0.0000 C   0  0  0  0  0  0  0  0  0  0  0  0
    6.7064   -1.4121    0.0000 C   0  0  0  0  0  0  0  0  0  0  0  0
    3.0555   -2.6951    0.0000 C   0  0  0  0  0  0  0  0  0  0  0  0
    6.7064   -2.2713    0.0000 C   0  0  0  0  0  0  0  0  0  0  0  0
    2.3081   -1.4121    0.0000 C   0  0  0  0  0  0  0  0  0  0  0  0
    2.3081   -2.2713    0.0000 C   0  0  0  0  0  0  0  0  0  0  0  0
    7.4154   -0.0124    0.0000 H   0  0  0  0  0  0  0  0  0  0  0  0
  1  6  1  0  0  0  0
  1  7  1  0  0  0  0
  2  4  1  0  0  0  0
  2  5  1  0  0  0  0
  3 11  1  0  0  0  0
  3 16  1  0  0  0  0
  4  6  2  0  0  0  0
  4  8  1  0  0  0  0
  5  7  1  0  0  0  0
  5  9  2  0  0  0  0
  6 10  1  0  0  0  0
  7 12  2  0  0  0  0
  8 11  2  0  0  0  0
  9 14  1  0  0  0  0
 10 13  2  0  0  0  0
 11 13  1  0  0  0  0
 12 15  1  0  0  0  0
 14 15  2  0  0  0  0
M  END
$$$$
O[C@@H]1CC[C@@H](O)[C@H](O)C[C@H](O)C[C@]2(O)C[C@H](O)C[C@@H](O2)C[C@@H](O)/C=C/C=C/C=C/C=C/C=C/C=C/C=C/[C@@H]([C@H]([C@H]([C@@H](OC(=O)C[C@@H](C1)O)C)C)O)C
 OpenBabel07182308452D

 61 62  0  0  1  0  0  0  0  0999 V2000
   17.5303   -9.2087    0.0000 C   0  0  1  0  0  0  0  0  0  0  0  0
   18.2484   -8.7918    0.0000 C   0  0  0  0  0  0  0  0  0  0  0  0
   16.8096   -8.7952    0.0000 O   0  0  0  0  0  0  0  0  0  0  0  0
   17.5303  -10.0323    0.0000 C   0  0  0  0  0  0  0  0  0  0  0  0
   18.2484   -7.9682    0.0000 C   0  0  2  0  0  0  0  0  0  0  0  0
   16.8096   -7.9682    0.0000 C   0  0  1  0  0  0  0  0  0  0  0  0
   16.8165  -10.4458    0.0000 C   0  0  1  0  0  0  0  0  0  0  0  0
   17.5303   -7.5547    0.0000 C   0  0  0  0  0  0  0  0  0  0  0  0
   18.9620   -7.5513    0.0000 O   0  0  0  0  0  0  0  0  0  0  0  0
   16.0992   -7.5582    0.0000 C   0  0  0  0  0  0  0  0  0  0  0  0
   16.8061   -7.1411    0.0000 O   0  0  0  0  0  0  0  0  0  0  0  0
   16.8199  -11.2728    0.0000 O   0  0  0  0  0  0  0  0  0  0  0  0
   16.1061  -10.0392    0.0000 C   0  0  0  0  0  0  0  0  0  0  0  0
   15.3853   -7.9716    0.0000 C   0  0  2  0  0  0  0  0  0  0  0  0
   15.3922  -10.4493    0.0000 C   0  0  0  0  0  0  0  0  0  0  0  0
   14.6675   -7.5616    0.0000 C   0  0  0  0  0  0  0  0  0  0  0  0
   15.3853   -8.7987    0.0000 O   0  0  0  0  0  0  0  0  0  0  0  0
   14.6784  -10.0468    0.0000 C   0  0  0  0  0  0  0  0  0  0  0  0
   13.9537   -7.9751    0.0000 C   0  0  2  0  0  0  0  0  0  0  0  0
   13.9606  -10.4603    0.0000 C   0  0  0  0  0  0  0  0  0  0  0  0
   13.2399   -7.5651    0.0000 C   0  0  1  0  0  0  0  0  0  0  0  0
   13.9571   -8.8021    0.0000 O   0  0  0  0  0  0  0  0  0  0  0  0
   13.2467  -10.0502    0.0000 C   0  0  0  0  0  0  0  0  0  0  0  0
   12.5295   -7.9827    0.0000 C   0  0  0  0  0  0  0  0  0  0  0  0
   13.2399   -6.7379    0.0000 O   0  0  0  0  0  0  0  0  0  0  0  0
   12.5364  -10.4638    0.0000 C   0  0  0  0  0  0  0  0  0  0  0  0
   11.8115   -7.5726    0.0000 C   0  0  0  0  0  0  0  0  0  0  0  0
   11.8226  -10.0537    0.0000 C   0  0  0  0  0  0  0  0  0  0  0  0
   11.0976   -7.9862    0.0000 C   0  0  2  0  0  0  0  0  0  0  0  0
   11.1046  -10.4672    0.0000 C   0  0  0  0  0  0  0  0  0  0  0  0
   10.3838   -7.5761    0.0000 C   0  0  0  0  0  0  0  0  0  0  0  0
   11.0976   -8.8131    0.0000 O   0  0  0  0  0  0  0  0  0  0  0  0
   10.3907  -10.0571    0.0000 C   0  0  0  0  0  0  0  0  0  0  0  0
    9.6700   -7.9896    0.0000 C   0  0  2  0  0  0  0  0  0  0  0  0
    9.6769  -10.4707    0.0000 C   0  0  0  0  0  0  0  0  0  0  0  0
    8.9555   -7.5795    0.0000 C   0  0  0  0  0  0  0  0  0  0  0  0
    9.6735   -8.8166    0.0000 O   0  0  0  0  0  0  0  0  0  0  0  0
    8.9666  -10.0606    0.0000 C   0  0  0  0  0  0  0  0  0  0  0  0
    8.2417   -7.9931    0.0000 C   0  0  0  0  0  0  0  0  0  0  0  0
    8.2451  -10.4741    0.0000 C   0  0  0  0  0  0  0  0  0  0  0  0
    7.5279   -7.5830    0.0000 O   0  0  0  0  0  0  0  0  0  0  0  0
    8.2417   -8.8200    0.0000 O   0  0  0  0  0  0  0  0  0  0  0  0
    7.5314  -10.0640    0.0000 C   0  0  0  0  0  0  0  0  0  0  0  0
    6.8141   -7.9965    0.0000 C   0  0  2  0  0  0  0  0  0  0  0  0
    6.8176  -10.4776    0.0000 C   0  0  0  0  0  0  0  0  0  0  0  0
    6.8141   -8.8235    0.0000 C   0  0  1  0  0  0  0  0  0  0  0  0
    6.0962   -7.5830    0.0000 C   0  0  0  0  0  0  0  0  0  0  0  0
    6.0962  -10.0640    0.0000 C   0  0  1  0  0  0  0  0  0  0  0  0
    6.0962   -9.2371    0.0000 C   0  0  1  0  0  0  0  0  0  0  0  0
    7.5314   -9.2371    0.0000 C   0  0  0  0  0  0  0  0  0  0  0  0
    5.3872  -10.4776    0.0000 C   0  0  0  0  0  0  0  0  0  0  0  0
    5.3872   -8.8235    0.0000 O   0  0  0  0  0  0  0  0  0  0  0  0
   18.2392   -9.6196    0.0000 H   0  0  0  0  0  0  0  0  0  0  0  0
   19.8045   -8.0320    0.0000 H   0  0  0  0  0  0  0  0  0  0  0  0
   17.6441   -6.6525    0.0000 H   0  0  0  0  0  0  0  0  0  0  0  0
   14.5453   -9.2837    0.0000 H   0  0  0  0  0  0  0  0  0  0  0  0
   13.1191   -9.2905    0.0000 H   0  0  0  0  0  0  0  0  0  0  0  0
   14.0799   -6.2529    0.0000 H   0  0  0  0  0  0  0  0  0  0  0  0
   10.2576   -9.2981    0.0000 H   0  0  0  0  0  0  0  0  0  0  0  0
    8.8355   -9.3052    0.0000 H   0  0  0  0  0  0  0  0  0  0  0  0
    5.3916   -7.8535    0.0000 H   0  0  0  0  0  0  0  0  0  0  0  0
  1  2  1  0  0  0  0
  1  3  1  0  0  0  0
  1  4  1  0  0  0  0
  1 53  1  1  0  0  0
  2  5  1  0  0  0  0
  3  6  1  0  0  0  0
  4  7  1  0  0  0  0
  5  8  1  0  0  0  0
  5  9  1  6  0  0  0
  6 10  1  0  0  0  0
  6 11  1  1  0  0  0
  6  8  1  0  0  0  0
  7 12  1  1  0  0  0
  7 13  1  0  0  0  0
  9 54  1  0  0  0  0
 10 14  1  0  0  0  0
 11 55  1  0  0  0  0
 13 15  2  0  0  0  0
 14 16  1  0  0  0  0
 14 17  1  1  0  0  0
 15 18  1  0  0  0  0
 16 19  1  0  0  0  0
 17 56  1  0  0  0  0
 18 20  2  0  0  0  0
 19 21  1  0  0  0  0
 19 22  1  1  0  0  0
 20 23  1  0  0  0  0
 21 24  1  0  0  0  0
 21 25  1  1  0  0  0
 22 57  1  0  0  0  0
 23 26  2  0  0  0  0
 24 27  1  0  0  0  0
 25 58  1  0  0  0  0
 26 28  1  0  0  0  0
 27 29  1  0  0  0  0
 28 30  2  0  0  0  0
 29 31  1  0  0  0  0
 29 32  1  1  0  0  0
 30 33  1  0  0  0  0
 31 34  1  0  0  0  0
 32 59  1  0  0  0  0
 33 35  2  0  0  0  0
 34 36  1  0  0  0  0
 34 37  1  1  0  0  0
 35 38  1  0  0  0  0
 36 39  1  0  0  0  0
 37 60  1  0  0  0  0
 38 40  2  0  0  0  0
 39 41  1  0  0  0  0
 39 42  2  0  0  0  0
 40 43  1  0  0  0  0
 41 44  1  0  0  0  0
 43 45  2  0  0  0  0
 44 46  1  0  0  0  0
 44 47  1  6  0  0  0
 45 48  1  0  0  0  0
 46 49  1  0  0  0  0
 46 50  1  6  0  0  0
 48 51  1  6  0  0  0
 48 49  1  0  0  0  0
 49 52  1  1  0  0  0
 52 61  1  0  0  0  0
M  END
$$$$
O[C@@H]1CO[C@@H]([C@H]([C@@H]1N)O)C
 OpenBabel07182308452D

 14 14  0  0  1  0  0  0  0  0999 V2000
   16.1061  -11.6898    0.0000 C   0  0  0  0  0  0  0  0  0  0  0  0
   16.1096  -12.5210    0.0000 C   0  0  2  0  0  0  0  0  0  0  0  0
   15.3922  -11.2764    0.0000 O   0  0  0  0  0  0  0  0  0  0  0  0
   15.3958  -12.9346    0.0000 C   0  0  2  0  0  0  0  0  0  0  0  0
   16.8276  -12.9269    0.0000 O   0  0  0  0  0  0  0  0  0  0  0  0
   14.6784  -11.6898    0.0000 C   0  0  1  0  0  0  0  0  0  0  0  0
   14.6784  -12.5210    0.0000 C   0  0  1  0  0  0  0  0  0  0  0  0
   15.3958  -13.7615    0.0000 N   0  0  0  0  0  0  0  0  0  0  0  0
   13.9571  -11.2839    0.0000 C   0  0  0  0  0  0  0  0  0  0  0  0
   13.9606  -12.9380    0.0000 O   0  0  0  0  0  0  0  0  0  0  0  0
   16.8364  -13.8969    0.0000 H   0  0  0  0  0  0  0  0  0  0  0  0
   14.5125  -14.2715    0.0000 H   0  0  0  0  0  0  0  0  0  0  0  0
   16.2791  -14.2715    0.0000 H   0  0  0  0  0  0  0  0  0  0  0  0
   13.1193  -12.4553    0.0000 H   0  0  0  0  0  0  0  0  0  0  0  0
  1  2  1  0  0  0  0
  1  3  1  0  0  0  0
  2  4  1  0  0  0  0
  2  5  1  1  0  0  0
  3  6  1  0  0  0  0
  4  7  1  0  0  0  0
  4  8  1  1  0  0  0
  5 11  1  0  0  0  0
  6  9  1  1  0  0  0
  6  7  1  0  0  0  0
  7 10  1  6  0  0  0
  8 12  1  0  0  0  0
  8 13  1  0  0  0  0
 10 14  1  0  0  0  0
M  END
$$$$
Clc1ccc2c(c1)C=NCc1n2c(C)nc1
 OpenBabel07182308452D

 16 18  0  0  0  0  0  0  0  0999 V2000
    1.6500   -0.2321    0.0000 Cl  0  0  0  0  0  0  0  0  0  0  0  0
    4.8159   -1.3269    0.0000 N   0  0  0  0  0  0  0  0  0  0  0  0
    5.2284    0.4805    0.0000 N   0  0  0  0  0  0  0  0  0  0  0  0
    5.7352   -2.2849    0.0000 N   0  0  0  0  0  0  0  0  0  0  0  0
    4.0726   -0.9689    0.0000 C   0  0  0  0  0  0  0  0  0  0  0  0
    5.5592   -0.9689    0.0000 C   0  0  0  0  0  0  0  0  0  0  0  0
    3.8890   -0.1645    0.0000 C   0  0  0  0  0  0  0  0  0  0  0  0
    5.7428   -0.1645    0.0000 C   0  0  0  0  0  0  0  0  0  0  0  0
    4.4034    0.4805    0.0000 C   0  0  0  0  0  0  0  0  0  0  0  0
    4.9281   -2.1392    0.0000 C   0  0  0  0  0  0  0  0  0  0  0  0
    6.1244   -1.5631    0.0000 C   0  0  0  0  0  0  0  0  0  0  0  0
    3.4517   -1.5630    0.0000 C   0  0  0  0  0  0  0  0  0  0  0  0
    3.0718    0.1014    0.0000 C   0  0  0  0  0  0  0  0  0  0  0  0
    4.3328   -2.7104    0.0000 C   0  0  0  0  0  0  0  0  0  0  0  0
    2.6286   -1.3160    0.0000 C   0  0  0  0  0  0  0  0  0  0  0  0
    2.4374   -0.4783    0.0000 C   0  0  0  0  0  0  0  0  0  0  0  0
  1 16  1  0  0  0  0
  2  5  1  0  0  0  0
  2  6  1  0  0  0  0
  2 10  1  0  0  0  0
  3  8  1  0  0  0  0
  3  9  2  0  0  0  0
  4 10  2  0  0  0  0
  4 11  1  0  0  0  0
  5  7  2  0  0  0  0
  5 12  1  0  0  0  0
  6  8  1  0  0  0  0
  6 11  2  0  0  0  0
  7  9  1  0  0  0  0
  7 13  1  0  0  0  0
 10 14  1  0  0  0  0
 12 15  2  0  0  0  0
 13 16  2  0  0  0  0
 15 16  1  0  0  0  0
M  END
$$$$
O[C@@H]1CO[C@@H]([C@@H]([C@H]1N)O)O
 OpenBabel07182308452D

 14 14  0  0  1  0  0  0  0  0999 V2000
   12.1679  -11.8385    0.0000 C   0  0  0  0  0  0  0  0  0  0  0  0
   12.1679  -12.6635    0.0000 C   0  0  2  0  0  0  0  0  0  0  0  0
   12.8824  -13.0760    0.0000 C   0  0  1  0  0  0  0  0  0  0  0  0
   13.5969  -12.6635    0.0000 C   0  0  2  0  0  0  0  0  0  0  0  0
   13.5969  -11.8385    0.0000 C   0  0  2  0  0  0  0  0  0  0  0  0
   12.8824  -11.4260    0.0000 O   0  0  0  0  0  0  0  0  0  0  0  0
   11.4535  -13.0760    0.0000 O   0  0  0  0  0  0  0  0  0  0  0  0
   12.8824  -13.9009    0.0000 N   0  0  0  0  0  0  0  0  0  0  0  0
   14.3224  -13.0825    0.0000 O   0  0  0  0  0  0  0  0  0  0  0  0
   14.3224  -11.4195    0.0000 O   0  0  0  0  0  0  0  0  0  0  0  0
   10.6134  -12.5910    0.0000 H   0  0  0  0  0  0  0  0  0  0  0  0
   11.9991  -14.4109    0.0000 H   0  0  0  0  0  0  0  0  0  0  0  0
   13.7657  -14.4109    0.0000 H   0  0  0  0  0  0  0  0  0  0  0  0
   14.3223  -14.0525    0.0000 H   0  0  0  0  0  0  0  0  0  0  0  0
  1  2  1  0  0  0  0
  1  6  1  0  0  0  0
  2  3  1  0  0  0  0
  2  7  1  6  0  0  0
  3  4  1  0  0  0  0
  3  8  1  1  0  0  0
  4  5  1  0  0  0  0
  4  9  1  6  0  0  0
  5  6  1  0  0  0  0
  5 10  1  6  0  0  0
  7 11  1  0  0  0  0
  8 12  1  0  0  0  0
  8 13  1  0  0  0  0
  9 14  1  0  0  0  0
M  END
$$$$
N[C@@H]1C[C@H](N)[C@H]([C@@H](C1)O)O
 OpenBabel07182308452D

 15 15  0  0  1  0  0  0  0  0999 V2000
   15.0142  -11.0135    0.0000 C   0  0  0  0  0  0  0  0  0  0  0  0
   15.7316  -11.4209    0.0000 C   0  0  1  0  0  0  0  0  0  0  0  0
   16.4431  -11.0034    0.0000 C   0  0  0  0  0  0  0  0  0  0  0  0
   16.4372  -10.1784    0.0000 C   0  0  1  0  0  0  0  0  0  0  0  0
   15.7199   -9.7709    0.0000 C   0  0  2  0  0  0  0  0  0  0  0  0
   15.0084  -10.1885    0.0000 C   0  0  2  0  0  0  0  0  0  0  0  0
   15.7375  -12.2507    0.0000 N   0  0  0  0  0  0  0  0  0  0  0  0
   17.1290   -9.7723    0.0000 N   0  0  0  0  0  0  0  0  0  0  0  0
   14.2954   -9.7836    0.0000 O   0  0  0  0  0  0  0  0  0  0  0  0
   15.7140   -8.9510    0.0000 O   0  0  0  0  0  0  0  0  0  0  0  0
   14.8578  -12.7670    0.0000 H   0  0  0  0  0  0  0  0  0  0  0  0
   16.6244  -12.7544    0.0000 H   0  0  0  0  0  0  0  0  0  0  0  0
   18.0160  -10.2759    0.0000 H   0  0  0  0  0  0  0  0  0  0  0  0
   17.1216   -8.7523    0.0000 H   0  0  0  0  0  0  0  0  0  0  0  0
   14.2885   -8.8136    0.0000 H   0  0  0  0  0  0  0  0  0  0  0  0
  1  2  1  0  0  0  0
  1  6  1  0  0  0  0
  2  3  1  0  0  0  0
  2  7  1  1  0  0  0
  3  4  1  0  0  0  0
  4  5  1  0  0  0  0
  4  8  1  1  0  0  0
  5  6  1  0  0  0  0
  5 10  1  6  0  0  0
  6  9  1  1  0  0  0
  7 11  1  0  0  0  0
  7 12  1  0  0  0  0
  8 13  1  0  0  0  0
  8 14  1  0  0  0  0
  9 15  1  0  0  0  0
M  END
$$$$
N[C@H]1COC[C@H](C1)O
 OpenBabel07182308452D

 11 11  0  0  1  0  0  0  0  0999 V2000
   16.4266   -8.5328    0.0000 C   0  0  0  0  0  0  0  0  0  0  0  0
   17.1389   -8.9373    0.0000 O   0  0  0  0  0  0  0  0  0  0  0  0
   17.8504   -8.5198    0.0000 C   0  0  0  0  0  0  0  0  0  0  0  0
   17.8446   -7.6948    0.0000 C   0  0  2  0  0  0  0  0  0  0  0  0
   17.1323   -7.2903    0.0000 C   0  0  0  0  0  0  0  0  0  0  0  0
   16.4207   -7.7078    0.0000 C   0  0  1  0  0  0  0  0  0  0  0  0
   18.5594   -7.2752    0.0000 O   0  0  0  0  0  0  0  0  0  0  0  0
   15.7028   -7.3000    0.0000 N   0  0  0  0  0  0  0  0  0  0  0  0
   19.4029   -7.7541    0.0000 H   0  0  0  0  0  0  0  0  0  0  0  0
   15.6957   -6.2800    0.0000 H   0  0  0  0  0  0  0  0  0  0  0  0
   14.8230   -7.8162    0.0000 H   0  0  0  0  0  0  0  0  0  0  0  0
  1  2  1  0  0  0  0
  1  6  1  0  0  0  0
  2  3  1  0  0  0  0
  3  4  1  0  0  0  0
  4  5  1  0  0  0  0
  4  7  1  6  0  0  0
  5  6  1  0  0  0  0
  6  8  1  6  0  0  0
  7  9  1  0  0  0  0
  8 10  1  0  0  0  0
  8 11  1  0  0  0  0
M  END
$$$$
N[C@@H]1[C@@H]2[C@H]1CNC2
 OpenBabel07182308452D

 11 12  0  0  0  0  0  0  0  0999 V2000
   -1.2710    0.3918    0.0000 N   0  0  0  0  0  0  0  0  0  0  0  0
   -2.0409    0.6888    0.0000 C   0  0  0  0  0  0  0  0  0  0  0  0
   -2.5611    0.0485    0.0000 C   0  0  1  0  0  0  0  0  0  0  0  0
   -2.1129   -0.6441    0.0000 C   0  0  1  0  0  0  0  0  0  0  0  0
   -1.2744   -0.4319    0.0000 C   0  0  0  0  0  0  0  0  0  0  0  0
   -2.9624   -0.6393    0.0000 C   0  0  2  0  0  0  0  0  0  0  0  0
   -3.1274    0.6393    0.0000 H   0  0  0  0  0  0  0  0  0  0  0  0
   -1.8898   -1.4232    0.0000 H   0  0  0  0  0  0  0  0  0  0  0  0
   -3.6791   -1.0483    0.0000 N   0  0  0  0  0  0  0  0  0  0  0  0
   -4.5599   -0.5339    0.0000 H   0  0  0  0  0  0  0  0  0  0  0  0
   -3.6842   -2.0683    0.0000 H   0  0  0  0  0  0  0  0  0  0  0  0
  1  2  1  0  0  0  0
  1  5  1  0  0  0  0
  2  3  1  0  0  0  0
  3  4  1  6  0  0  0
  3  7  1  0  0  0  0
  4  5  1  0  0  0  0
  4  8  1  6  0  0  0
  6  3  1  6  0  0  0
  6  4  1  0  0  0  0
  6  9  1  0  0  0  0
  9 10  1  0  0  0  0
  9 11  1  0  0  0  0
M  END
$$$$
O[C@H]1CCCOC1
 OpenBabel07182308452D

  8  8  0  0  1  0  0  0  0  0999 V2000
    7.0944   -1.2375    0.0000 O   0  0  0  0  0  0  0  0  0  0  0  0
    9.2379   -1.6500    0.0000 O   0  0  0  0  0  0  0  0  0  0  0  0
    7.8089    0.0000    0.0000 C   0  0  0  0  0  0  0  0  0  0  0  0
    7.0944   -0.4125    0.0000 C   0  0  0  0  0  0  0  0  0  0  0  0
    8.5234   -0.4125    0.0000 C   0  0  0  0  0  0  0  0  0  0  0  0
    8.5234   -1.2375    0.0000 C   0  0  1  0  0  0  0  0  0  0  0  0
    7.8089   -1.6500    0.0000 C   0  0  0  0  0  0  0  0  0  0  0  0
    9.2379   -2.6200    0.0000 H   0  0  0  0  0  0  0  0  0  0  0  0
  1  4  1  0  0  0  0
  1  7  1  0  0  0  0
  2  8  1  0  0  0  0
  3  4  1  0  0  0  0
  3  5  1  0  0  0  0
  5  6  1  0  0  0  0
  6  2  1  6  0  0  0
  6  7  1  0  0  0  0
M  END
$$$$
O[C@H]1CC[C@@H](CO1)O
 OpenBabel07182308452D

  9  9  0  0  1  0  0  0  0  0999 V2000
    6.3799    0.0000    0.0000 O   0  0  0  0  0  0  0  0  0  0  0  0
    4.9509   -1.6500    0.0000 O   0  0  0  0  0  0  0  0  0  0  0  0
    3.5220   -1.6500    0.0000 O   0  0  0  0  0  0  0  0  0  0  0  0
    5.6655   -0.4125    0.0000 C   0  0  1  0  0  0  0  0  0  0  0  0
    4.9509    0.0000    0.0000 C   0  0  0  0  0  0  0  0  0  0  0  0
    4.2365   -0.4125    0.0000 C   0  0  0  0  0  0  0  0  0  0  0  0
    5.6655   -1.2375    0.0000 C   0  0  0  0  0  0  0  0  0  0  0  0
    4.2365   -1.2375    0.0000 C   0  0  1  0  0  0  0  0  0  0  0  0
    2.6820   -1.1650    0.0000 H   0  0  0  0  0  0  0  0  0  0  0  0
  2  7  1  0  0  0  0
  2  8  1  0  0  0  0
  3  9  1  0  0  0  0
  4  1  1  6  0  0  0
  4  5  1  0  0  0  0
  4  7  1  0  0  0  0
  5  6  1  0  0  0  0
  6  8  1  0  0  0  0
  8  3  1  1  0  0  0
M  END
$$$$
O=C1CC[C@]2(C(=C1)CC[C@@H]1[C@]2(F)[C@@H](O)C[C@]2([C@H]1CC[C@H]2O)C)C
 OpenBabel07182308452D

 27 30  0  0  0  0  0  0  0  0999 V2000
   -2.5297   -0.7425    0.0000 C   0  0  0  0  0  0  0  0  0  0  0  0
   -2.5297   -1.5676    0.0000 C   0  0  0  0  0  0  0  0  0  0  0  0
   -1.8284   -1.9802    0.0000 C   0  0  0  0  0  0  0  0  0  0  0  0
   -1.0857   -1.5676    0.0000 C   0  0  0  0  0  0  0  0  0  0  0  0
   -1.0857   -0.7425    0.0000 C   0  0  2  0  0  0  0  0  0  0  0  0
   -1.8284   -0.3300    0.0000 C   0  0  0  0  0  0  0  0  0  0  0  0
   -0.3844   -1.9802    0.0000 C   0  0  0  0  0  0  0  0  0  0  0  0
    0.3168   -1.5676    0.0000 C   0  0  0  0  0  0  0  0  0  0  0  0
    0.3168   -0.7425    0.0000 C   0  0  2  0  0  0  0  0  0  0  0  0
   -0.3844   -0.3300    0.0000 C   0  0  2  0  0  0  0  0  0  0  0  0
    1.0182   -0.3300    0.0000 C   0  0  1  0  0  0  0  0  0  0  0  0
    1.0182    0.4951    0.0000 C   0  0  2  0  0  0  0  0  0  0  0  0
    0.3168    0.9076    0.0000 C   0  0  0  0  0  0  0  0  0  0  0  0
   -0.3844    0.4951    0.0000 C   0  0  2  0  0  0  0  0  0  0  0  0
    1.8020   -0.5775    0.0000 C   0  0  0  0  0  0  0  0  0  0  0  0
    2.2971    0.0825    0.0000 C   0  0  0  0  0  0  0  0  0  0  0  0
    1.8020    0.7425    0.0000 C   0  0  1  0  0  0  0  0  0  0  0  0
   -3.2311   -1.9802    0.0000 O   0  0  0  0  0  0  0  0  0  0  0  0
    0.3168    0.0825    0.0000 H   0  0  0  0  0  0  0  0  0  0  0  0
   -1.0857    0.9076    0.0000 O   0  0  0  0  0  0  0  0  0  0  0  0
    1.0182    1.3202    0.0000 C   0  0  0  0  0  0  0  0  0  0  0  0
   -0.3844   -1.1551    0.0000 F   0  0  0  0  0  0  0  0  0  0  0  0
    1.0182   -1.1551    0.0000 H   0  0  0  0  0  0  0  0  0  0  0  0
    2.5859    0.9489    0.0000 O   0  0  0  0  0  0  0  0  0  0  0  0
   -1.0857    0.0825    0.0000 C   0  0  0  0  0  0  0  0  0  0  0  0
   -1.0778    1.8776    0.0000 H   0  0  0  0  0  0  0  0  0  0  0  0
    3.2688    0.2600    0.0000 H   0  0  0  0  0  0  0  0  0  0  0  0
  1  2  1  0  0  0  0
  1  6  1  0  0  0  0
  2  3  1  0  0  0  0
  2 18  2  0  0  0  0
  3  4  2  0  0  0  0
  4  5  1  0  0  0  0
  4  7  1  0  0  0  0
  5  6  1  0  0  0  0
  5 10  1  6  0  0  0
  5 25  1  0  0  0  0
  7  8  1  0  0  0  0
  8  9  1  0  0  0  0
  9 10  1  6  0  0  0
  9 19  1  0  0  0  0
 10 22  1  6  0  0  0
 11  9  1  1  0  0  0
 11 15  1  0  0  0  0
 11 23  1  0  0  0  0
 12 11  1  1  0  0  0
 12 13  1  0  0  0  0
 12 21  1  0  0  0  0
 13 14  1  0  0  0  0
 14 10  1  1  0  0  0
 14 20  1  0  0  0  0
 15 16  1  0  0  0  0
 16 17  1  0  0  0  0
 17 12  1  6  0  0  0
 17 24  1  0  0  0  0
 20 26  1  0  0  0  0
 24 27  1  0  0  0  0
M  END
$$$$
O=C1OCc2c1c(O)c(C)cc2C
 OpenBabel07182308452D

 14 15  0  0  0  0  0  0  0  0999 V2000
   12.9150   -0.1279    0.0000 O   0  0  0  0  0  0  0  0  0  0  0  0
   10.9383    1.5222    0.0000 O   0  0  0  0  0  0  0  0  0  0  0  0
   12.6898    1.3203    0.0000 O   0  0  0  0  0  0  0  0  0  0  0  0
   11.6529   -0.5404    0.0000 C   0  0  0  0  0  0  0  0  0  0  0  0
   10.2239    0.2846    0.0000 C   0  0  0  0  0  0  0  0  0  0  0  0
   11.6529    0.2846    0.0000 C   0  0  0  0  0  0  0  0  0  0  0  0
   10.9383   -0.9529    0.0000 C   0  0  0  0  0  0  0  0  0  0  0  0
   10.2239   -0.5404    0.0000 C   0  0  0  0  0  0  0  0  0  0  0  0
   10.9383    0.6971    0.0000 C   0  0  0  0  0  0  0  0  0  0  0  0
    9.5094    0.6971    0.0000 C   0  0  0  0  0  0  0  0  0  0  0  0
   12.4335   -0.7918    0.0000 C   0  0  0  0  0  0  0  0  0  0  0  0
   12.4335    0.5360    0.0000 C   0  0  0  0  0  0  0  0  0  0  0  0
   10.9383   -1.7779    0.0000 C   0  0  0  0  0  0  0  0  0  0  0  0
   11.7498    1.9907    0.0000 H   0  0  0  0  0  0  0  0  0  0  0  0
  1 11  1  0  0  0  0
  1 12  1  0  0  0  0
  2  9  1  0  0  0  0
  2 14  1  0  0  0  0
  3 12  2  0  0  0  0
  4  6  1  0  0  0  0
  4  7  2  0  0  0  0
  4 11  1  0  0  0  0
  5  8  2  0  0  0  0
  5  9  1  0  0  0  0
  5 10  1  0  0  0  0
  6  9  2  0  0  0  0
  6 12  1  0  0  0  0
  7  8  1  0  0  0  0
  7 13  1  0  0  0  0
M  END
$$$$
Clc1ccc2c(c1)C=NCC(=O)N2C
 OpenBabel07182308452D

 14 15  0  0  0  0  0  0  0  0999 V2000
    5.2302   -2.7288    0.0000 Cl  0  0  0  0  0  0  0  0  0  0  0  0
    5.0238    1.9897    0.0000 O   0  0  0  0  0  0  0  0  0  0  0  0
    4.8673    0.6014    0.0000 N   0  0  0  0  0  0  0  0  0  0  0  0
    6.7212    0.6014    0.0000 N   0  0  0  0  0  0  0  0  0  0  0  0
    4.0630    0.7849    0.0000 C   0  0  0  0  0  0  0  0  0  0  0  0
    5.0509   -0.2030    0.0000 C   0  0  0  0  0  0  0  0  0  0  0  0
    5.7942   -0.5609    0.0000 C   0  0  0  0  0  0  0  0  0  0  0  0
    5.3817    1.2464    0.0000 C   0  0  0  0  0  0  0  0  0  0  0  0
    6.5376   -0.2030    0.0000 C   0  0  0  0  0  0  0  0  0  0  0  0
    6.2068    1.2464    0.0000 C   0  0  0  0  0  0  0  0  0  0  0  0
    4.3336   -0.6761    0.0000 C   0  0  0  0  0  0  0  0  0  0  0  0
    5.8716   -1.4168    0.0000 C   0  0  0  0  0  0  0  0  0  0  0  0
    4.3911   -1.5335    0.0000 C   0  0  0  0  0  0  0  0  0  0  0  0
    5.1654   -1.9064    0.0000 C   0  0  0  0  0  0  0  0  0  0  0  0
  1 14  1  0  0  0  0
  2  8  2  0  0  0  0
  3  5  1  0  0  0  0
  3  6  1  0  0  0  0
  3  8  1  0  0  0  0
  4  9  2  0  0  0  0
  4 10  1  0  0  0  0
  6  7  2  0  0  0  0
  6 11  1  0  0  0  0
  7  9  1  0  0  0  0
  7 12  1  0  0  0  0
  8 10  1  0  0  0  0
 11 13  2  0  0  0  0
 12 14  2  0  0  0  0
 13 14  1  0  0  0  0
M  END
$$$$
N1CCc2c(C1)cccc2
 OpenBabel07182308452D

 10 11  0  0  1  0  0  0  0  0999 V2000
    4.5079    1.5221    0.0000 N   0  0  0  0  0  0  0  0  0  0  0  0
    4.5079    2.3471    0.0000 C   0  0  0  0  0  0  0  0  0  0  0  0
    5.2224    2.7597    0.0000 C   0  0  0  0  0  0  0  0  0  0  0  0
    5.2224    1.1096    0.0000 C   0  0  0  0  0  0  0  0  0  0  0  0
    5.9369    2.3471    0.0000 C   0  0  0  0  0  0  0  0  0  0  0  0
    5.9369    1.5221    0.0000 C   0  0  0  0  0  0  0  0  0  0  0  0
    6.6744    2.7883    0.0000 C   0  0  0  0  0  0  0  0  0  0  0  0
    6.6744    1.0810    0.0000 C   0  0  0  0  0  0  0  0  0  0  0  0
    7.4219    2.3643    0.0000 C   0  0  0  0  0  0  0  0  0  0  0  0
    7.4219    1.5050    0.0000 C   0  0  0  0  0  0  0  0  0  0  0  0
  1  2  1  0  0  0  0
  1  4  1  0  0  0  0
  2  3  1  0  0  0  0
  3  5  1  0  0  0  0
  4  6  1  0  0  0  0
  5  6  1  0  0  0  0
  5  7  2  0  0  0  0
  6  8  2  0  0  0  0
  7  9  1  0  0  0  0
  8 10  1  0  0  0  0
  9 10  2  0  0  0  0
M  END
$$$$
C1CNC=N1
 OpenBabel07182308452D

  6  6  0  0  0  0  0  0  0  0999 V2000
    2.1365    1.9622    0.0000 N   0  0  0  0  0  0  0  0  0  0  0  0
    3.4714    1.9622    0.0000 N   0  0  0  0  0  0  0  0  0  0  0  0
    2.8040    1.4773    0.0000 C   0  0  0  0  0  0  0  0  0  0  0  0
    2.3915    2.7468    0.0000 C   0  0  0  0  0  0  0  0  0  0  0  0
    3.2165    2.7468    0.0000 C   0  0  0  0  0  0  0  0  0  0  0  0
    1.2002    1.6580    0.0000 H   0  0  0  0  0  0  0  0  0  0  0  0
  1  3  1  0  0  0  0
  1  4  1  0  0  0  0
  1  6  1  0  0  0  0
  2  3  2  0  0  0  0
  2  5  1  0  0  0  0
  4  5  1  0  0  0  0
M  END
$$$$
Oc1ccc2c(c1)Oc1c(C32OC(=O)c2c3cccc2)ccc(c1)O
 OpenBabel07182308452D

 27 31  0  0  0  0  0  0  0  0999 V2000
    2.8579    1.7935    0.0000 O   0  0  0  0  0  0  0  0  0  0  0  0
    2.1434    1.3809    0.0000 C   0  0  0  0  0  0  0  0  0  0  0  0
    1.4289    0.1434    0.0000 C   0  0  0  0  0  0  0  0  0  0  0  0
    2.1434    0.5559    0.0000 C   0  0  0  0  0  0  0  0  0  0  0  0
    0.0000    0.1434    0.0000 C   0  0  0  0  0  0  0  0  0  0  0  0
    0.7145    0.5559    0.0000 C   0  0  0  0  0  0  0  0  0  0  0  0
   -0.7145    0.5559    0.0000 C   0  0  0  0  0  0  0  0  0  0  0  0
    0.7145    1.3809    0.0000 C   0  0  0  0  0  0  0  0  0  0  0  0
   -0.7145    1.3809    0.0000 C   0  0  0  0  0  0  0  0  0  0  0  0
   -1.4289    0.1434    0.0000 C   0  0  0  0  0  0  0  0  0  0  0  0
    1.4289    1.7935    0.0000 C   0  0  0  0  0  0  0  0  0  0  0  0
    0.0000    1.7935    0.0000 O   0  0  0  0  0  0  0  0  0  0  0  0
   -1.4289    1.7935    0.0000 C   0  0  0  0  0  0  0  0  0  0  0  0
   -2.1434    0.5559    0.0000 C   0  0  0  0  0  0  0  0  0  0  0  0
   -2.1434    1.3809    0.0000 C   0  0  0  0  0  0  0  0  0  0  0  0
   -2.8579    1.7935    0.0000 O   0  0  0  0  0  0  0  0  0  0  0  0
    0.4125   -1.1261    0.0000 C   0  0  0  0  0  0  0  0  0  0  0  0
    0.6674   -0.3413    0.0000 O   0  0  0  0  0  0  0  0  0  0  0  0
   -0.4125   -1.1261    0.0000 C   0  0  0  0  0  0  0  0  0  0  0  0
   -0.6674   -0.3413    0.0000 C   0  0  0  0  0  0  0  0  0  0  0  0
   -1.4744   -0.1698    0.0000 C   0  0  0  0  0  0  0  0  0  0  0  0
   -2.0264   -0.7830    0.0000 C   0  0  0  0  0  0  0  0  0  0  0  0
   -0.9645   -1.7392    0.0000 C   0  0  0  0  0  0  0  0  0  0  0  0
    0.8974   -1.7935    0.0000 O   0  0  0  0  0  0  0  0  0  0  0  0
   -1.7715   -1.5676    0.0000 C   0  0  0  0  0  0  0  0  0  0  0  0
    3.6694    1.3251    0.0000 H   0  0  0  0  0  0  0  0  0  0  0  0
   -2.8578    2.7305    0.0000 H   0  0  0  0  0  0  0  0  0  0  0  0
  1 26  1  0  0  0  0
  2  1  1  0  0  0  0
  3  4  1  0  0  0  0
  4  2  2  0  0  0  0
  5 20  1  0  0  0  0
  5  6  1  0  0  0  0
  5  7  1  0  0  0  0
  6  3  2  0  0  0  0
  6  8  1  0  0  0  0
  7  9  1  0  0  0  0
  7 10  2  0  0  0  0
  8 11  2  0  0  0  0
  8 12  1  0  0  0  0
  9 12  1  0  0  0  0
  9 13  2  0  0  0  0
 10 14  1  0  0  0  0
 11  2  1  0  0  0  0
 13 15  1  0  0  0  0
 14 15  2  0  0  0  0
 15 16  1  0  0  0  0
 16 27  1  0  0  0  0
 17 18  1  0  0  0  0
 17 24  2  0  0  0  0
 18  5  1  0  0  0  0
 19 17  1  0  0  0  0
 19 20  2  0  0  0  0
 20 21  1  0  0  0  0
 21 22  2  0  0  0  0
 22 25  1  0  0  0  0
 23 19  1  0  0  0  0
 25 23  2  0  0  0  0
M  END
$$$$
Cc1ccco1
 OpenBabel07182308452D

  6  6  0  0  0  0  0  0  0  0999 V2000
    3.0319   -2.6593    0.0000 O   0  0  0  0  0  0  0  0  0  0  0  0
    2.3645   -1.3494    0.0000 C   0  0  0  0  0  0  0  0  0  0  0  0
    2.3645   -2.1744    0.0000 C   0  0  0  0  0  0  0  0  0  0  0  0
    1.6970   -2.6593    0.0000 C   0  0  0  0  0  0  0  0  0  0  0  0
    1.9520   -3.4439    0.0000 C   0  0  0  0  0  0  0  0  0  0  0  0
    2.7770   -3.4439    0.0000 C   0  0  0  0  0  0  0  0  0  0  0  0
  1  3  1  0  0  0  0
  1  6  1  0  0  0  0
  2  3  1  0  0  0  0
  3  4  2  0  0  0  0
  4  5  1  0  0  0  0
  5  6  2  0  0  0  0
M  END
$$$$
Nc1cccc(c1)Cl
 OpenBabel07182308452D

  9  9  0  0  0  0  0  0  0  0999 V2000
    1.6500    1.5381    0.0000 Cl  0  0  0  0  0  0  0  0  0  0  0  0
    3.0790   -0.9369    0.0000 N   0  0  0  0  0  0  0  0  0  0  0  0
    3.0790   -0.1119    0.0000 C   0  0  0  0  0  0  0  0  0  0  0  0
    3.0790    1.5381    0.0000 C   0  0  0  0  0  0  0  0  0  0  0  0
    3.7935    0.3006    0.0000 C   0  0  0  0  0  0  0  0  0  0  0  0
    3.7935    1.1256    0.0000 C   0  0  0  0  0  0  0  0  0  0  0  0
    2.3645    0.3006    0.0000 C   0  0  0  0  0  0  0  0  0  0  0  0
    2.3645    1.1256    0.0000 C   0  0  0  0  0  0  0  0  0  0  0  0
    3.9316   -1.4292    0.0000 H   0  0  0  0  0  0  0  0  0  0  0  0
  1  8  1  0  0  0  0
  2  3  1  0  0  0  0
  2  9  1  0  0  0  0
  3  5  1  0  0  0  0
  3  7  2  0  0  0  0
  4  6  1  0  0  0  0
  4  8  2  0  0  0  0
  5  6  2  0  0  0  0
  7  8  1  0  0  0  0
M  END
$$$$
Clc1ccc2c(c1)nsn2
 OpenBabel07182308452D

 10 11  0  0  0  0  0  0  0  0999 V2000
    2.2413   -0.3751    0.0000 Cl  0  0  0  0  0  0  0  0  0  0  0  0
    5.6469   -1.2002    0.0000 S   0  0  0  0  0  0  0  0  0  0  0  0
    5.1654   -0.5363    0.0000 N   0  0  0  0  0  0  0  0  0  0  0  0
    5.1654   -1.8640    0.0000 N   0  0  0  0  0  0  0  0  0  0  0  0
    3.6703   -0.3751    0.0000 C   0  0  0  0  0  0  0  0  0  0  0  0
    4.3847   -0.7876    0.0000 C   0  0  0  0  0  0  0  0  0  0  0  0
    4.3847   -1.6127    0.0000 C   0  0  0  0  0  0  0  0  0  0  0  0
    2.9558   -0.7876    0.0000 C   0  0  0  0  0  0  0  0  0  0  0  0
    3.6703   -2.0252    0.0000 C   0  0  0  0  0  0  0  0  0  0  0  0
    2.9558   -1.6127    0.0000 C   0  0  0  0  0  0  0  0  0  0  0  0
  1  8  1  0  0  0  0
  2  3  1  0  0  0  0
  2  4  1  0  0  0  0
  3  6  2  0  0  0  0
  4  7  2  0  0  0  0
  5  6  1  0  0  0  0
  5  8  2  0  0  0  0
  6  7  1  0  0  0  0
  7  9  1  0  0  0  0
  8 10  1  0  0  0  0
  9 10  2  0  0  0  0
M  END
$$$$
C[C@H]1CN(C)[C@H]2C(C1)c1cccc3c1c(C2)cn3C
 OpenBabel07182308452D

 20 23  0  0  0  0  0  0  0  0999 V2000
   -2.1433   -1.5645    0.0000 C   0  0  0  0  0  0  0  0  0  0  0  0
   -2.1433   -0.7395    0.0000 C   0  0  0  0  0  0  0  0  0  0  0  0
   -2.8579   -1.9770    0.0000 C   0  0  0  0  0  0  0  0  0  0  0  0
   -2.8579   -0.3270    0.0000 C   0  0  0  0  0  0  0  0  0  0  0  0
   -0.7145   -1.5645    0.0000 C   0  0  0  0  0  0  0  0  0  0  0  0
   -3.5723   -1.5645    0.0000 C   0  0  0  0  0  0  0  0  0  0  0  0
   -1.4288    0.4979    0.0000 C   0  0  0  0  0  0  0  0  0  0  0  0
   -3.5723   -0.7395    0.0000 C   0  0  0  0  0  0  0  0  0  0  0  0
    0.0000    0.4979    0.0000 C   0  0  0  0  0  0  0  0  0  0  0  0
   -0.7145   -0.7395    0.0000 C   0  0  2  0  0  0  0  0  0  0  0  0
    0.0000   -1.1520    0.0000 H   0  0  0  0  0  0  0  0  0  0  0  0
   -1.4288   -0.3270    0.0000 C   0  0  3  0  0  0  0  0  0  0  0  0
   -1.4288   -1.9770    0.0000 C   0  0  0  0  0  0  0  0  0  0  0  0
   -1.4288   -2.8020    0.0000 C   0  0  0  0  0  0  0  0  0  0  0  0
    0.0000   -0.3270    0.0000 N   0  0  0  0  0  0  0  0  0  0  0  0
    0.7144   -0.7395    0.0000 C   0  0  0  0  0  0  0  0  0  0  0  0
   -0.7145    0.9104    0.0000 C   0  0  2  0  0  0  0  0  0  0  0  0
   -0.7145    1.7354    0.0000 C   0  0  0  0  0  0  0  0  0  0  0  0
   -2.8579   -2.8020    0.0000 N   0  0  0  0  0  0  0  0  0  0  0  0
   -3.4413   -3.3854    0.0000 C   0  0  0  0  0  0  0  0  0  0  0  0
  1  2  2  0  0  0  0
  1 13  1  0  0  0  0
  1  3  1  0  0  0  0
  2 12  1  0  0  0  0
  2  4  1  0  0  0  0
  3 19  1  0  0  0  0
  3  6  2  0  0  0  0
  4  8  2  0  0  0  0
  5 10  1  0  0  0  0
  6  8  1  0  0  0  0
  7 17  1  0  0  0  0
 10 15  1  0  0  0  0
 10 11  1  1  0  0  0
 12 10  1  0  0  0  0
 12  7  1  0  0  0  0
 13  5  1  0  0  0  0
 13 14  2  0  0  0  0
 14 19  1  0  0  0  0
 15  9  1  0  0  0  0
 15 16  1  0  0  0  0
 17  9  1  0  0  0  0
 17 18  1  1  0  0  0
 19 20  1  0  0  0  0
M  END
$$$$
Brc1cccnc1
 OpenBabel07182308452D

  7  7  0  0  0  0  0  0  0  0999 V2000
    1.4288    2.1479    0.0000 C   0  0  0  0  0  0  0  0  0  0  0  0
    2.1433    1.7354    0.0000 C   0  0  0  0  0  0  0  0  0  0  0  0
    1.4288    2.9729    0.0000 C   0  0  0  0  0  0  0  0  0  0  0  0
    2.1433    3.3854    0.0000 N   0  0  0  0  0  0  0  0  0  0  0  0
    2.8578    2.9730    0.0000 C   0  0  0  0  0  0  0  0  0  0  0  0
    2.8578    2.1479    0.0000 C   0  0  0  0  0  0  0  0  0  0  0  0
    3.5723    1.7354    0.0000 Br  0  0  0  0  0  0  0  0  0  0  0  0
  1  2  1  0  0  0  0
  2  6  2  0  0  0  0
  3  1  2  0  0  0  0
  4  3  1  0  0  0  0
  4  5  2  0  0  0  0
  6  5  1  0  0  0  0
  6  7  1  0  0  0  0
M  END
$$$$
O=C1CC[C@]2(C(=C1)CC[C@@H]1[C@]32O[C@@H]3C[C@]2([C@H]1CC[C@]12CCC(=O)O1)C)C
 OpenBabel07182308452D

 28 33  0  0  1  0  0  0  0  0999 V2000
    9.3804   -5.1874    0.0000 C   0  0  2  0  0  0  0  0  0  0  0  0
    9.3762   -6.0125    0.0000 C   0  0  2  0  0  0  0  0  0  0  0  0
   10.0933   -5.5990    0.0000 O   0  0  0  0  0  0  0  0  0  0  0  0
    7.2303   -6.4185    0.0000 C   0  0  0  0  0  0  0  0  0  0  0  0
    7.2303   -7.2436    0.0000 C   0  0  0  0  0  0  0  0  0  0  0  0
    7.9466   -7.6561    0.0000 C   0  0  0  0  0  0  0  0  0  0  0  0
    7.9466   -6.0060    0.0000 C   0  0  0  0  0  0  0  0  0  0  0  0
    8.6586   -6.4185    0.0000 C   0  0  1  0  0  0  0  0  0  0  0  0
    8.6550   -7.2436    0.0000 C   0  0  0  0  0  0  0  0  0  0  0  0
    9.3677   -7.6590    0.0000 C   0  0  0  0  0  0  0  0  0  0  0  0
   10.0841   -7.2496    0.0000 C   0  0  0  0  0  0  0  0  0  0  0  0
   10.0841   -6.4263    0.0000 C   0  0  1  0  0  0  0  0  0  0  0  0
   10.0975   -4.7805    0.0000 C   0  0  0  0  0  0  0  0  0  0  0  0
   10.8067   -5.1978    0.0000 C   0  0  1  0  0  0  0  0  0  0  0  0
   10.8013   -6.0238    0.0000 C   0  0  1  0  0  0  0  0  0  0  0  0
   11.5853   -6.2841    0.0000 C   0  0  0  0  0  0  0  0  0  0  0  0
   12.0750   -5.6191    0.0000 C   0  0  0  0  0  0  0  0  0  0  0  0
   11.5937   -4.9466    0.0000 C   0  0  2  0  0  0  0  0  0  0  0  0
   12.4180   -4.9476    0.0000 O   0  0  0  0  0  0  0  0  0  0  0  0
   12.6736   -4.1638    0.0000 C   0  0  0  0  0  0  0  0  0  0  0  0
   12.0072   -3.6787    0.0000 C   0  0  0  0  0  0  0  0  0  0  0  0
   11.3398   -4.1624    0.0000 C   0  0  0  0  0  0  0  0  0  0  0  0
   13.4585   -3.9098    0.0000 O   0  0  0  0  0  0  0  0  0  0  0  0
    6.5161   -7.6564    0.0000 O   0  0  0  0  0  0  0  0  0  0  0  0
    8.6512   -5.5935    0.0000 C   0  0  0  0  0  0  0  0  0  0  0  0
    9.3637   -6.8310    0.0000 H   0  0  0  0  0  0  0  0  0  0  0  0
   10.8013   -4.3726    0.0000 C   0  0  0  0  0  0  0  0  0  0  0  0
   10.7971   -6.8476    0.0000 H   0  0  0  0  0  0  0  0  0  0  0  0
  1  2  1  1  0  0  0
  1  3  1  0  0  0  0
  2  3  1  0  0  0  0
  2  8  1  6  0  0  0
  4  5  1  0  0  0  0
  5  6  1  0  0  0  0
  5 24  2  0  0  0  0
  6  9  2  0  0  0  0
  7  4  1  0  0  0  0
  8  7  1  0  0  0  0
  8  9  1  0  0  0  0
  8 25  1  1  0  0  0
  9 10  1  0  0  0  0
 10 11  1  0  0  0  0
 11 12  1  0  0  0  0
 12  2  1  6  0  0  0
 12 26  1  0  0  0  0
 13  1  1  0  0  0  0
 14 15  1  1  0  0  0
 14 13  1  0  0  0  0
 14 27  1  0  0  0  0
 15 16  1  0  0  0  0
 15 12  1  1  0  0  0
 15 28  1  0  0  0  0
 16 17  1  0  0  0  0
 17 18  1  0  0  0  0
 18 14  1  1  0  0  0
 18 19  1  0  0  0  0
 18 22  1  0  0  0  0
 19 20  1  0  0  0  0
 20 21  1  0  0  0  0
 20 23  2  0  0  0  0
 21 22  1  0  0  0  0
M  END
$$$$
Cn1ncsc1=N
 OpenBabel07182308452D

  7  7  0  0  0  0  0  0  0  0999 V2000
   -0.3608    0.2062    0.0000 C   0  0  0  0  0  0  0  0  0  0  0  0
    0.3065    0.6912    0.0000 S   0  0  0  0  0  0  0  0  0  0  0  0
   -0.1059   -0.5783    0.0000 N   0  0  0  0  0  0  0  0  0  0  0  0
   -1.1455    0.4612    0.0000 N   0  0  0  0  0  0  0  0  0  0  0  0
    0.9739    0.2062    0.0000 C   0  0  0  0  0  0  0  0  0  0  0  0
    0.7190   -0.5783    0.0000 N   0  0  0  0  0  0  0  0  0  0  0  0
   -0.5908   -1.2457    0.0000 C   0  0  0  0  0  0  0  0  0  0  0  0
  1  2  1  0  0  0  0
  1  3  1  0  0  0  0
  1  4  2  0  0  0  0
  2  5  1  0  0  0  0
  3  6  1  0  0  0  0
  3  7  1  0  0  0  0
  5  6  2  0  0  0  0
M  END
$$$$
O=C1CC[C@@]2([C@@]34[C@H]1Oc1c4c(C[C@H]2N(CC3)C)ccc1O)O
 OpenBabel07182308452D

 26 30  0  0  1  0  0  0  0  0999 V2000
    1.9356   -0.2231    0.0000 O   0  0  0  0  0  0  0  0  0  0  0  0
    4.4727   -1.7584    0.0000 O   0  0  0  0  0  0  0  0  0  0  0  0
    1.7349   -2.3527    0.0000 O   0  0  0  0  0  0  0  0  0  0  0  0
    1.7349    1.8149    0.0000 O   0  0  0  0  0  0  0  0  0  0  0  0
    5.3440   -1.0939    0.0000 N   0  0  0  0  0  0  0  0  0  0  0  0
    3.2006   -0.6814    0.0000 C   0  0  1  0  0  0  0  0  0  0  0  0
    3.9151   -1.0939    0.0000 C   0  0  1  0  0  0  0  0  0  0  0  0
    4.6296   -0.6814    0.0000 C   0  0  1  0  0  0  0  0  0  0  0  0
    2.4861   -1.0939    0.0000 C   0  0  2  0  0  0  0  0  0  0  0  0
    3.6773   -0.0764    0.0000 C   0  0  0  0  0  0  0  0  0  0  0  0
    3.2006    0.1436    0.0000 C   0  0  0  0  0  0  0  0  0  0  0  0
    3.9151   -1.9190    0.0000 C   0  0  0  0  0  0  0  0  0  0  0  0
    4.8506   -0.0764    0.0000 C   0  0  0  0  0  0  0  0  0  0  0  0
    4.6296    0.1436    0.0000 C   0  0  0  0  0  0  0  0  0  0  0  0
    3.9151    0.5561    0.0000 C   0  0  0  0  0  0  0  0  0  0  0  0
    5.9350   -1.7290    0.0000 C   0  0  0  0  0  0  0  0  0  0  0  0
    3.2006   -2.3315    0.0000 C   0  0  0  0  0  0  0  0  0  0  0  0
    2.4861   -1.9190    0.0000 C   0  0  0  0  0  0  0  0  0  0  0  0
    2.4861    0.5561    0.0000 C   0  0  0  0  0  0  0  0  0  0  0  0
    3.9151    1.3811    0.0000 C   0  0  0  0  0  0  0  0  0  0  0  0
    2.4861    1.3811    0.0000 C   0  0  0  0  0  0  0  0  0  0  0  0
    3.2006    1.7936    0.0000 C   0  0  0  0  0  0  0  0  0  0  0  0
    4.8675   -1.3334    0.0000 H   0  0  0  0  0  0  0  0  0  0  0  0
    1.8196   -1.2870    0.0000 H   0  0  0  0  0  0  0  0  0  0  0  0
    4.1410   -2.6699    0.0000 H   0  0  0  0  0  0  0  0  0  0  0  0
    1.7350    2.7519    0.0000 H   0  0  0  0  0  0  0  0  0  0  0  0
  1  9  1  0  0  0  0
  1 19  1  0  0  0  0
  2 25  1  0  0  0  0
  3 18  2  0  0  0  0
  4 21  1  0  0  0  0
  4 26  1  0  0  0  0
  5  8  1  0  0  0  0
  5 13  1  0  0  0  0
  5 16  1  0  0  0  0
  6  7  1  6  0  0  0
  6 10  1  0  0  0  0
  6 11  1  0  0  0  0
  7  2  1  0  0  0  0
  7  8  1  6  0  0  0
  7 12  1  0  0  0  0
  8 14  1  0  0  0  0
  8 23  1  6  0  0  0
  9  6  1  1  0  0  0
  9 18  1  0  0  0  0
  9 24  1  0  0  0  0
 10 13  1  0  0  0  0
 11 15  2  0  0  0  0
 11 19  1  0  0  0  0
 12 17  1  0  0  0  0
 14 15  1  0  0  0  0
 15 20  1  0  0  0  0
 17 18  1  0  0  0  0
 19 21  2  0  0  0  0
 20 22  2  0  0  0  0
 21 22  1  0  0  0  0
M  END
$$$$
Nc1cccnc1
 OpenBabel07182308452D

  8  8  0  0  0  0  0  0  0  0999 V2000
    7.7222   -1.6468    0.0000 N   0  0  0  0  0  0  0  0  0  0  0  0
    9.7847   -0.9323    0.0000 N   0  0  0  0  0  0  0  0  0  0  0  0
    8.9597   -0.9323    0.0000 C   0  0  0  0  0  0  0  0  0  0  0  0
    8.5472   -1.6468    0.0000 C   0  0  0  0  0  0  0  0  0  0  0  0
    8.9597   -2.3613    0.0000 C   0  0  0  0  0  0  0  0  0  0  0  0
   10.1972   -1.6468    0.0000 C   0  0  0  0  0  0  0  0  0  0  0  0
    9.7847   -2.3613    0.0000 C   0  0  0  0  0  0  0  0  0  0  0  0
    7.2299   -0.7942    0.0000 H   0  0  0  0  0  0  0  0  0  0  0  0
  1  4  1  0  0  0  0
  1  8  1  0  0  0  0
  2  3  1  0  0  0  0
  2  6  2  0  0  0  0
  3  4  2  0  0  0  0
  4  5  1  0  0  0  0
  5  7  2  0  0  0  0
  6  7  1  0  0  0  0
M  END
$$$$
C1OCCS1
 OpenBabel07182308452D

  5  5  0  0  1  0  0  0  0  0999 V2000
    2.6665   -1.4952    0.0000 S   0  0  0  0  0  0  0  0  0  0  0  0
    3.7465   -0.7106    0.0000 O   0  0  0  0  0  0  0  0  0  0  0  0
    3.0791   -0.2256    0.0000 C   0  0  0  0  0  0  0  0  0  0  0  0
    2.4115   -0.7106    0.0000 C   0  0  0  0  0  0  0  0  0  0  0  0
    3.4916   -1.4952    0.0000 C   0  0  0  0  0  0  0  0  0  0  0  0
  1  4  1  0  0  0  0
  1  5  1  0  0  0  0
  2  3  1  0  0  0  0
  2  5  1  0  0  0  0
  3  4  1  0  0  0  0
M  END
$$$$
CN1CCc2c3[C@H]1Cc1ccc(c(c1c3ccc2)O)O
 OpenBabel07182308452D

 23 26  0  0  1  0  0  0  0  0999 V2000
    3.4218    1.3849    0.0000 O   0  0  0  0  0  0  0  0  0  0  0  0
    2.0105    0.5846    0.0000 O   0  0  0  0  0  0  0  0  0  0  0  0
    6.1725   -1.0164    0.0000 N   0  0  0  0  0  0  0  0  0  0  0  0
    5.4927   -0.6228    0.0000 C   0  0  1  0  0  0  0  0  0  0  0  0
    5.4927    0.1694    0.0000 C   0  0  0  0  0  0  0  0  0  0  0  0
    4.8067   -1.0188    0.0000 C   0  0  0  0  0  0  0  0  0  0  0  0
    6.2135    0.5708    0.0000 C   0  0  0  0  0  0  0  0  0  0  0  0
    6.8581   -0.6328    0.0000 C   0  0  0  0  0  0  0  0  0  0  0  0
    6.8784    0.1524    0.0000 C   0  0  0  0  0  0  0  0  0  0  0  0
    4.8067    0.5654    0.0000 C   0  0  0  0  0  0  0  0  0  0  0  0
    4.1207   -0.6228    0.0000 C   0  0  0  0  0  0  0  0  0  0  0  0
    4.1207    0.1694    0.0000 C   0  0  0  0  0  0  0  0  0  0  0  0
    6.1667   -1.8084    0.0000 C   0  0  0  0  0  0  0  0  0  0  0  0
    6.2199    1.3959    0.0000 C   0  0  0  0  0  0  0  0  0  0  0  0
    4.7940    1.3904    0.0000 C   0  0  0  0  0  0  0  0  0  0  0  0
    3.4126   -1.0462    0.0000 C   0  0  0  0  0  0  0  0  0  0  0  0
    3.4126    0.5929    0.0000 C   0  0  0  0  0  0  0  0  0  0  0  0
    5.5053    1.8084    0.0000 C   0  0  0  0  0  0  0  0  0  0  0  0
    2.6949    0.1858    0.0000 C   0  0  0  0  0  0  0  0  0  0  0  0
    2.6949   -0.6392    0.0000 C   0  0  0  0  0  0  0  0  0  0  0  0
    5.4923   -1.2564    0.0000 H   0  0  0  0  0  0  0  0  0  0  0  0
    4.2387    1.8439    0.0000 H   0  0  0  0  0  0  0  0  0  0  0  0
    2.0143    1.5216    0.0000 H   0  0  0  0  0  0  0  0  0  0  0  0
  1 17  1  0  0  0  0
  1 22  1  0  0  0  0
  2 19  1  0  0  0  0
  2 23  1  0  0  0  0
  3  4  1  0  0  0  0
  3  8  1  0  0  0  0
  3 13  1  0  0  0  0
  4  5  1  0  0  0  0
  4  6  1  0  0  0  0
  4 21  1  1  0  0  0
  5  7  2  0  0  0  0
  5 10  1  0  0  0  0
  6 11  1  0  0  0  0
  7  9  1  0  0  0  0
  7 14  1  0  0  0  0
  8  9  1  0  0  0  0
 10 12  1  0  0  0  0
 10 15  2  0  0  0  0
 11 12  2  0  0  0  0
 11 16  1  0  0  0  0
 12 17  1  0  0  0  0
 14 18  2  0  0  0  0
 15 18  1  0  0  0  0
 16 20  2  0  0  0  0
 17 19  2  0  0  0  0
 19 20  1  0  0  0  0
M  END
$$$$
C1Oc2c(O1)cccc2
 OpenBabel07182308452D

  9 10  0  0  1  0  0  0  0  0999 V2000
    7.4321    0.8206    0.0000 O   0  0  0  0  0  0  0  0  0  0  0  0
    7.4321   -0.5071    0.0000 O   0  0  0  0  0  0  0  0  0  0  0  0
    5.2224    0.5693    0.0000 C   0  0  0  0  0  0  0  0  0  0  0  0
    5.9370    0.9818    0.0000 C   0  0  0  0  0  0  0  0  0  0  0  0
    5.2224   -0.2558    0.0000 C   0  0  0  0  0  0  0  0  0  0  0  0
    6.6515    0.5693    0.0000 C   0  0  0  0  0  0  0  0  0  0  0  0
    6.6515   -0.2558    0.0000 C   0  0  0  0  0  0  0  0  0  0  0  0
    5.9370   -0.6683    0.0000 C   0  0  0  0  0  0  0  0  0  0  0  0
    7.9136    0.1568    0.0000 C   0  0  0  0  0  0  0  0  0  0  0  0
  1  6  1  0  0  0  0
  1  9  1  0  0  0  0
  2  7  1  0  0  0  0
  2  9  1  0  0  0  0
  3  4  2  0  0  0  0
  3  5  1  0  0  0  0
  4  6  1  0  0  0  0
  5  8  2  0  0  0  0
  6  7  2  0  0  0  0
  7  8  1  0  0  0  0
M  END
$$$$
Cc1c2occc(=O)c2cc2c1[nH]ccc2=O
 OpenBabel07182308452D

 17 19  0  0  0  0  0  0  0  0999 V2000
    4.2684    0.2492    0.0000 O   0  0  0  0  0  0  0  0  0  0  0  0
    7.1628   -2.2830    0.0000 O   0  0  0  0  0  0  0  0  0  0  0  0
    4.2780   -2.2830    0.0000 O   0  0  0  0  0  0  0  0  0  0  0  0
    7.1724    0.2492    0.0000 N   0  0  0  0  0  0  0  0  0  0  0  0
    6.4348   -0.1920    0.0000 C   0  0  0  0  0  0  0  0  0  0  0  0
    5.7204    0.2205    0.0000 C   0  0  0  0  0  0  0  0  0  0  0  0
    6.4348   -1.0170    0.0000 C   0  0  0  0  0  0  0  0  0  0  0  0
    5.7204    1.0455    0.0000 C   0  0  0  0  0  0  0  0  0  0  0  0
    5.0059   -0.1920    0.0000 C   0  0  0  0  0  0  0  0  0  0  0  0
    5.0059   -1.0170    0.0000 C   0  0  0  0  0  0  0  0  0  0  0  0
    5.7204   -1.4295    0.0000 C   0  0  0  0  0  0  0  0  0  0  0  0
    7.9198   -0.1748    0.0000 C   0  0  0  0  0  0  0  0  0  0  0  0
    7.1724   -1.4581    0.0000 C   0  0  0  0  0  0  0  0  0  0  0  0
    7.9198   -1.0341    0.0000 C   0  0  0  0  0  0  0  0  0  0  0  0
    4.2684   -1.4581    0.0000 C   0  0  0  0  0  0  0  0  0  0  0  0
    3.5209   -0.1748    0.0000 C   0  0  0  0  0  0  0  0  0  0  0  0
    3.5209   -1.0341    0.0000 C   0  0  0  0  0  0  0  0  0  0  0  0
  1  9  1  0  0  0  0
  1 16  1  0  0  0  0
  2 13  2  0  0  0  0
  3 15  2  0  0  0  0
  4  5  1  0  0  0  0
  4 12  1  0  0  0  0
  5  6  2  0  0  0  0
  5  7  1  0  0  0  0
  6  8  1  0  0  0  0
  6  9  1  0  0  0  0
  7 11  2  0  0  0  0
  7 13  1  0  0  0  0
  9 10  2  0  0  0  0
 10 11  1  0  0  0  0
 10 15  1  0  0  0  0
 12 14  2  0  0  0  0
 13 14  1  0  0  0  0
 15 17  1  0  0  0  0
 16 17  2  0  0  0  0
M  END
$$$$
C#C[C@]1(O)CC[C@@H]2[C@]1(C)CC[C@H]1[C@H]2CCC2=CC(=O)CC[C@H]12
 OpenBabel07182308452D

 27 30  0  0  0  0  0  0  0  0999 V2000
    0.6793   -1.7774    0.0000 C   0  0  0  0  0  0  0  0  0  0  0  0
    0.6793   -0.9524    0.0000 C   0  0  2  0  0  0  0  0  0  0  0  0
   -0.7495   -0.9524    0.0000 C   0  0  2  0  0  0  0  0  0  0  0  0
   -0.0350   -2.1899    0.0000 C   0  0  0  0  0  0  0  0  0  0  0  0
   -0.7495   -1.7774    0.0000 C   0  0  0  0  0  0  0  0  0  0  0  0
   -1.4640   -0.5399    0.0000 C   0  0  0  0  0  0  0  0  0  0  0  0
   -1.4640   -2.1899    0.0000 C   0  0  0  0  0  0  0  0  0  0  0  0
   -2.1784   -0.9524    0.0000 C   0  0  0  0  0  0  0  0  0  0  0  0
   -2.1784   -1.7774    0.0000 C   0  0  0  0  0  0  0  0  0  0  0  0
   -0.0350   -0.5399    0.0000 C   0  0  1  0  0  0  0  0  0  0  0  0
    2.1784   -0.7948    0.0000 C   0  0  0  0  0  0  0  0  0  0  0  0
    0.6793    0.6975    0.0000 C   0  0  0  0  0  0  0  0  0  0  0  0
    2.6634   -0.1274    0.0000 C   0  0  0  0  0  0  0  0  0  0  0  0
   -0.0350    0.2850    0.0000 C   0  0  0  0  0  0  0  0  0  0  0  0
   -2.8929   -2.1899    0.0000 O   0  0  0  0  0  0  0  0  0  0  0  0
   -0.7495   -0.1274    0.0000 H   0  0  0  0  0  0  0  0  0  0  0  0
   -0.0350   -1.3649    0.0000 H   0  0  0  0  0  0  0  0  0  0  0  0
    0.6793   -0.1274    0.0000 H   0  0  0  0  0  0  0  0  0  0  0  0
    1.3938    0.2850    0.0000 C   0  0  1  0  0  0  0  0  0  0  0  0
    1.3938    1.1100    0.0000 C   0  0  0  0  0  0  0  0  0  0  0  0
    1.3938   -0.5399    0.0000 C   0  0  2  0  0  0  0  0  0  0  0  0
    1.3938   -1.3649    0.0000 H   0  0  0  0  0  0  0  0  0  0  0  0
    2.1784    0.5399    0.0000 C   0  0  1  0  0  0  0  0  0  0  0  0
    2.8929    0.9524    0.0000 O   0  0  0  0  0  0  0  0  0  0  0  0
    2.1784    1.3649    0.0000 C   0  0  0  0  0  0  0  0  0  0  0  0
    2.1784    2.1899    0.0000 C   0  0  0  0  0  0  0  0  0  0  0  0
    3.7329    0.4674    0.0000 H   0  0  0  0  0  0  0  0  0  0  0  0
  1  4  1  0  0  0  0
  2  1  1  0  0  0  0
  2 21  1  6  0  0  0
  2 18  1  0  0  0  0
  3 16  1  0  0  0  0
  3  5  1  0  0  0  0
  3  6  1  0  0  0  0
  3 10  1  6  0  0  0
  4  5  1  0  0  0  0
  5  7  2  0  0  0  0
  6  8  1  0  0  0  0
  7  9  1  0  0  0  0
  8  9  1  0  0  0  0
  9 15  2  0  0  0  0
 10  2  1  1  0  0  0
 10 14  1  0  0  0  0
 10 17  1  0  0  0  0
 11 13  1  0  0  0  0
 12 14  1  0  0  0  0
 19 12  1  0  0  0  0
 19 21  1  1  0  0  0
 19 20  1  0  0  0  0
 21 11  1  0  0  0  0
 21 22  1  6  0  0  0
 23 13  1  0  0  0  0
 23 19  1  1  0  0  0
 23 24  1  0  0  0  0
 23 25  1  0  0  0  0
 24 27  1  0  0  0  0
 25 26  3  0  0  0  0
M  END
$$$$
Nc1ncnc2c1ncn2C
 OpenBabel07182308452D

 13 14  0  0  0  0  0  0  0  0999 V2000
    3.8597    1.8001    0.0000 N   0  0  0  0  0  0  0  0  0  0  0  0
    3.8597    3.1280    0.0000 N   0  0  0  0  0  0  0  0  0  0  0  0
    2.3645    1.6390    0.0000 N   0  0  0  0  0  0  0  0  0  0  0  0
    1.6500    2.8765    0.0000 N   0  0  0  0  0  0  0  0  0  0  0  0
    2.3645    4.1140    0.0000 N   0  0  0  0  0  0  0  0  0  0  0  0
    4.1159    1.0159    0.0000 C   0  0  0  0  0  0  0  0  0  0  0  0
    3.0790    2.0515    0.0000 C   0  0  0  0  0  0  0  0  0  0  0  0
    3.0790    2.8765    0.0000 C   0  0  0  0  0  0  0  0  0  0  0  0
    4.3411    2.4640    0.0000 C   0  0  0  0  0  0  0  0  0  0  0  0
    2.3645    3.2890    0.0000 C   0  0  0  0  0  0  0  0  0  0  0  0
    1.6500    2.0515    0.0000 C   0  0  0  0  0  0  0  0  0  0  0  0
    3.2171    4.6063    0.0000 H   0  0  0  0  0  0  0  0  0  0  0  0
    1.5119    4.6062    0.0000 H   0  0  0  0  0  0  0  0  0  0  0  0
  1  6  1  0  0  0  0
  1  7  1  0  0  0  0
  1  9  1  0  0  0  0
  2  8  1  0  0  0  0
  2  9  2  0  0  0  0
  3  7  2  0  0  0  0
  3 11  1  0  0  0  0
  4 10  1  0  0  0  0
  4 11  2  0  0  0  0
  5 10  1  0  0  0  0
  5 12  1  0  0  0  0
  5 13  1  0  0  0  0
  7  8  1  0  0  0  0
  8 10  2  0  0  0  0
M  END
$$$$
CN1CCC(=C2c3ccccc3CCc3c2nccc3)CC1
 OpenBabel07182308452D

 22 25  0  0  0  0  0  0  0  0999 V2000
    4.0285   -1.7286    0.0000 N   0  0  0  0  0  0  0  0  0  0  0  0
    2.6643    0.5102    0.0000 N   0  0  0  0  0  0  0  0  0  0  0  0
    4.0285   -0.0786    0.0000 C   0  0  0  0  0  0  0  0  0  0  0  0
    4.7429   -0.4911    0.0000 C   0  0  0  0  0  0  0  0  0  0  0  0
    3.3140   -0.4911    0.0000 C   0  0  0  0  0  0  0  0  0  0  0  0
    4.7429   -1.3161    0.0000 C   0  0  0  0  0  0  0  0  0  0  0  0
    3.3139   -1.3161    0.0000 C   0  0  0  0  0  0  0  0  0  0  0  0
    4.0285    0.7464    0.0000 C   0  0  0  0  0  0  0  0  0  0  0  0
    4.7718    1.1043    0.0000 C   0  0  0  0  0  0  0  0  0  0  0  0
    3.2852    1.1043    0.0000 C   0  0  0  0  0  0  0  0  0  0  0  0
    4.9554    1.9086    0.0000 C   0  0  0  0  0  0  0  0  0  0  0  0
    4.4410    2.5536    0.0000 C   0  0  0  0  0  0  0  0  0  0  0  0
    3.6160    2.5536    0.0000 C   0  0  0  0  0  0  0  0  0  0  0  0
    3.1016    1.9086    0.0000 C   0  0  0  0  0  0  0  0  0  0  0  0
    4.0285   -2.5536    0.0000 C   0  0  0  0  0  0  0  0  0  0  0  0
    5.3926    0.5102    0.0000 C   0  0  0  0  0  0  0  0  0  0  0  0
    5.7725    2.1745    0.0000 C   0  0  0  0  0  0  0  0  0  0  0  0
    2.2844    2.1745    0.0000 C   0  0  0  0  0  0  0  0  0  0  0  0
    6.2157    0.7571    0.0000 C   0  0  0  0  0  0  0  0  0  0  0  0
    6.4070    1.5949    0.0000 C   0  0  0  0  0  0  0  0  0  0  0  0
    1.6500    1.5950    0.0000 C   0  0  0  0  0  0  0  0  0  0  0  0
    1.8412    0.7571    0.0000 C   0  0  0  0  0  0  0  0  0  0  0  0
  1  6  1  0  0  0  0
  1  7  1  0  0  0  0
  1 15  1  0  0  0  0
  2 10  1  0  0  0  0
  2 22  2  0  0  0  0
  3  4  1  0  0  0  0
  3  5  1  0  0  0  0
  3  8  2  0  0  0  0
  4  6  1  0  0  0  0
  5  7  1  0  0  0  0
  8  9  1  0  0  0  0
  8 10  1  0  0  0  0
  9 11  1  0  0  0  0
  9 16  2  0  0  0  0
 10 14  2  0  0  0  0
 11 12  1  0  0  0  0
 11 17  2  0  0  0  0
 12 13  1  0  0  0  0
 13 14  1  0  0  0  0
 14 18  1  0  0  0  0
 16 19  1  0  0  0  0
 17 20  1  0  0  0  0
 18 21  2  0  0  0  0
 19 20  2  0  0  0  0
 21 22  1  0  0  0  0
M  END
$$$$
Cn1cnc2c1c1ccccc1nc2N
 OpenBabel07182308452D

 17 19  0  0  0  0  0  0  0  0999 V2000
   -0.3572   -0.9965    0.0000 C   0  0  0  0  0  0  0  0  0  0  0  0
   -0.3572   -1.8215    0.0000 C   0  0  0  0  0  0  0  0  0  0  0  0
   -1.0717   -0.5840    0.0000 C   0  0  0  0  0  0  0  0  0  0  0  0
   -1.0717   -2.2340    0.0000 C   0  0  0  0  0  0  0  0  0  0  0  0
   -1.7862   -0.9965    0.0000 C   0  0  0  0  0  0  0  0  0  0  0  0
   -1.7862   -1.8215    0.0000 C   0  0  0  0  0  0  0  0  0  0  0  0
    1.0717   -0.9965    0.0000 C   0  0  0  0  0  0  0  0  0  0  0  0
    1.0717   -1.8215    0.0000 C   0  0  0  0  0  0  0  0  0  0  0  0
    0.3572   -0.5840    0.0000 C   0  0  0  0  0  0  0  0  0  0  0  0
    0.3572   -2.2340    0.0000 N   0  0  0  0  0  0  0  0  0  0  0  0
    1.6849   -0.4443    0.0000 N   0  0  0  0  0  0  0  0  0  0  0  0
    1.3493    0.3092    0.0000 C   0  0  0  0  0  0  0  0  0  0  0  0
    0.5288    0.2230    0.0000 N   0  0  0  0  0  0  0  0  0  0  0  0
   -0.0232    0.8362    0.0000 C   0  0  0  0  0  0  0  0  0  0  0  0
    1.7862   -2.2340    0.0000 N   0  0  0  0  0  0  0  0  0  0  0  0
    1.7862   -3.2185    0.0000 H   0  0  0  0  0  0  0  0  0  0  0  0
    2.6388   -1.7417    0.0000 H   0  0  0  0  0  0  0  0  0  0  0  0
  1  9  1  0  0  0  0
  2 10  1  0  0  0  0
  2  1  2  0  0  0  0
  3  1  1  0  0  0  0
  4  2  1  0  0  0  0
  5  3  2  0  0  0  0
  6  4  2  0  0  0  0
  6  5  1  0  0  0  0
  8  7  1  0  0  0  0
  8 15  1  0  0  0  0
  9  7  2  0  0  0  0
 10  8  2  0  0  0  0
 11  7  1  0  0  0  0
 12 11  2  0  0  0  0
 13  9  1  0  0  0  0
 13 12  1  0  0  0  0
 13 14  1  0  0  0  0
 15 16  1  0  0  0  0
 15 17  1  0  0  0  0
M  END
$$$$
OC1CC2CCC(C1)[N+]2(C)C
 OpenBabel07182308452D

 11 12  0  0  1  0  0  0  0  0999 V2000
   -0.7145    0.4125    0.0000 O   0  0  0  0  0  0  0  0  0  0  0  0
   -2.0738   -1.3395    0.0000 C   0  0  3  0  0  0  0  0  0  0  0  0
   -1.4289   -0.8250    0.0000 C   0  0  0  0  0  0  0  0  0  0  0  0
   -2.8783    0.3307    0.0000 C   0  0  3  0  0  0  0  0  0  0  0  0
   -2.0740    0.5143    0.0000 C   0  0  0  0  0  0  0  0  0  0  0  0
   -1.4289    0.0000    0.0000 C   0  0  3  0  0  0  0  0  0  0  0  0
   -1.9509   -0.1194    0.0000 N   0  3  0  0  0  0  0  0  0  0  0  0
   -3.2908   -0.3838    0.0000 C   0  0  0  0  0  0  0  0  0  0  0  0
   -2.8707   -1.1260    0.0000 C   0  0  0  0  0  0  0  0  0  0  0  0
   -1.7374    0.6774    0.0000 C   0  0  0  0  0  0  0  0  0  0  0  0
   -1.1540   -0.3330    0.0000 C   0  0  0  0  0  0  0  0  0  0  0  0
  2  7  1  0  0  0  0
  2  9  1  0  0  0  0
  3  2  1  0  0  0  0
  4  7  1  0  0  0  0
  4  8  1  0  0  0  0
  5  4  1  0  0  0  0
  5  6  1  0  0  0  0
  6  1  1  0  0  0  0
  6  3  1  0  0  0  0
  7 10  1  0  0  0  0
  7 11  1  0  0  0  0
  9  8  1  0  0  0  0
M  CHG  1   7   1
M  END
$$$$
[O-][N+](=O)O
 OpenBabel07182308452D

  4  3  0  0  0  0  0  0  0  0999 V2000
    5.2224    1.0313    0.0000 O   0  0  0  0  0  0  0  0  0  0  0  0
    6.6515    1.0313    0.0000 O   0  5  0  0  0  0  0  0  0  0  0  0
    5.9370   -0.2063    0.0000 O   0  0  0  0  0  0  0  0  0  0  0  0
    5.9370    0.6188    0.0000 N   0  3  0  0  0  0  0  0  0  0  0  0
  1  4  1  0  0  0  0
  2  4  1  0  0  0  0
  3  4  2  0  0  0  0
M  CHG  2   2  -1   4   1
M  END
$$$$
O[C@@H]1CC[C@]2([C@H](C1)CC[C@@H]1[C@@H]2CC[C@]2([C@H]1CC[C@@H]2O)C)C
 OpenBabel07182308452D

 26 29  0  0  0  0  0  0  0  0999 V2000
   -2.4134   -1.1344    0.0000 C   0  0  0  0  0  0  0  0  0  0  0  0
   -2.4134   -1.9595    0.0000 C   0  0  2  0  0  0  0  0  0  0  0  0
   -1.7120   -2.3721    0.0000 C   0  0  0  0  0  0  0  0  0  0  0  0
   -0.9694   -1.9595    0.0000 C   0  0  1  0  0  0  0  0  0  0  0  0
   -0.9694   -1.1344    0.0000 C   0  0  2  0  0  0  0  0  0  0  0  0
   -1.7120   -0.7220    0.0000 C   0  0  0  0  0  0  0  0  0  0  0  0
   -0.2681   -2.3721    0.0000 C   0  0  0  0  0  0  0  0  0  0  0  0
    0.4332   -1.9595    0.0000 C   0  0  0  0  0  0  0  0  0  0  0  0
    0.4332   -1.1344    0.0000 C   0  0  2  0  0  0  0  0  0  0  0  0
   -0.2681   -0.7220    0.0000 C   0  0  2  0  0  0  0  0  0  0  0  0
    1.1757   -0.7220    0.0000 C   0  0  1  0  0  0  0  0  0  0  0  0
    1.1757    0.1031    0.0000 C   0  0  2  0  0  0  0  0  0  0  0  0
    0.4332    0.5157    0.0000 C   0  0  0  0  0  0  0  0  0  0  0  0
   -0.2681    0.1031    0.0000 C   0  0  0  0  0  0  0  0  0  0  0  0
    2.5784   -0.7220    0.0000 C   0  0  0  0  0  0  0  0  0  0  0  0
    2.5784    0.1031    0.0000 C   0  0  0  0  0  0  0  0  0  0  0  0
    1.8770    0.5157    0.0000 C   0  0  2  0  0  0  0  0  0  0  0  0
   -3.1147   -2.3721    0.0000 O   0  0  0  0  0  0  0  0  0  0  0  0
   -0.9694   -2.7846    0.0000 H   0  0  0  0  0  0  0  0  0  0  0  0
   -0.2681   -1.5470    0.0000 H   0  0  0  0  0  0  0  0  0  0  0  0
    1.1757   -1.5470    0.0000 H   0  0  0  0  0  0  0  0  0  0  0  0
   -0.9694   -0.3093    0.0000 C   0  0  0  0  0  0  0  0  0  0  0  0
    0.4332   -0.3093    0.0000 H   0  0  0  0  0  0  0  0  0  0  0  0
    1.1757    0.9281    0.0000 C   0  0  0  0  0  0  0  0  0  0  0  0
    1.8770    1.5470    0.0000 O   0  0  0  0  0  0  0  0  0  0  0  0
   -3.9587   -1.8940    0.0000 H   0  0  0  0  0  0  0  0  0  0  0  0
  1  2  1  0  0  0  0
  1  6  1  0  0  0  0
  2  3  1  0  0  0  0
  2 18  1  6  0  0  0
  3  4  1  0  0  0  0
  4  5  1  6  0  0  0
  4  7  1  0  0  0  0
  4 19  1  0  0  0  0
  5  6  1  0  0  0  0
  5 10  1  6  0  0  0
  5 22  1  0  0  0  0
  7  8  1  0  0  0  0
  8  9  1  0  0  0  0
  9 10  1  6  0  0  0
  9 23  1  0  0  0  0
 10 14  1  0  0  0  0
 10 20  1  6  0  0  0
 11  9  1  1  0  0  0
 11 15  1  0  0  0  0
 11 21  1  0  0  0  0
 12 11  1  1  0  0  0
 12 13  1  0  0  0  0
 12 24  1  0  0  0  0
 13 14  1  0  0  0  0
 15 16  1  0  0  0  0
 16 17  1  0  0  0  0
 17 12  1  1  0  0  0
 17 25  1  0  0  0  0
 18 26  1  0  0  0  0
M  END
$$$$
C[NH+]1CCCC1
 OpenBabel07182308452D

  6  6  0  0  0  0  0  0  0  0999 V2000
    3.2797    0.5157    0.0000 N   0  3  0  0  0  0  0  0  0  0  0  0
    3.2797    1.3407    0.0000 C   0  0  0  0  0  0  0  0  0  0  0  0
    4.0636    0.2680    0.0000 C   0  0  0  0  0  0  0  0  0  0  0  0
    4.5587    0.9281    0.0000 C   0  0  0  0  0  0  0  0  0  0  0  0
    4.0636    1.5882    0.0000 C   0  0  0  0  0  0  0  0  0  0  0  0
    3.2797   -0.3093    0.0000 C   0  0  0  0  0  0  0  0  0  0  0  0
  1  2  1  0  0  0  0
  1  3  1  0  0  0  0
  1  6  1  0  0  0  0
  2  5  1  0  0  0  0
  3  4  1  0  0  0  0
  4  5  1  0  0  0  0
M  CHG  1   1   1
M  END
$$$$
CC1c2ccccc2CC[N+]1(C)C
 OpenBabel07182308452D

 13 14  0  0  0  0  0  0  0  0999 V2000
   -4.9960    1.5694    0.0000 N   0  3  0  0  0  0  0  0  0  0  0  0
   -5.7204    1.1607    0.0000 C   0  0  3  0  0  0  0  0  0  0  0  0
   -6.4262    1.5879    0.0000 C   0  0  0  0  0  0  0  0  0  0  0  0
   -6.4262    2.4051    0.0000 C   0  0  0  0  0  0  0  0  0  0  0  0
   -4.9960    2.4051    0.0000 C   0  0  0  0  0  0  0  0  0  0  0  0
   -7.1505    1.1793    0.0000 C   0  0  0  0  0  0  0  0  0  0  0  0
   -5.7018    2.8137    0.0000 C   0  0  0  0  0  0  0  0  0  0  0  0
   -5.7204    0.3435    0.0000 C   0  0  0  0  0  0  0  0  0  0  0  0
   -7.8563    1.5879    0.0000 C   0  0  0  0  0  0  0  0  0  0  0  0
   -7.1505    2.8323    0.0000 C   0  0  0  0  0  0  0  0  0  0  0  0
   -7.8563    2.4051    0.0000 C   0  0  0  0  0  0  0  0  0  0  0  0
   -4.2902    1.9965    0.0000 C   0  0  0  0  0  0  0  0  0  0  0  0
   -4.2902    1.1793    0.0000 C   0  0  0  0  0  0  0  0  0  0  0  0
  1  2  1  0  0  0  0
  1  5  1  0  0  0  0
  1 12  1  0  0  0  0
  1 13  1  0  0  0  0
  2  3  1  0  0  0  0
  2  8  1  0  0  0  0
  3  4  2  0  0  0  0
  3  6  1  0  0  0  0
  4  7  1  0  0  0  0
  4 10  1  0  0  0  0
  5  7  1  0  0  0  0
  6  9  2  0  0  0  0
  9 11  1  0  0  0  0
 10 11  2  0  0  0  0
M  CHG  1   1   1
M  END
$$$$
Fc1ccc2c(c1)onc2
 OpenBabel07182308452D

 10 11  0  0  0  0  0  0  0  0999 V2000
    1.6500   -0.1193    0.0000 F   0  0  0  0  0  0  0  0  0  0  0  0
    3.9340   -1.9522    0.0000 O   0  0  0  0  0  0  0  0  0  0  0  0
    4.7359   -1.7796    0.0000 N   0  0  0  0  0  0  0  0  0  0  0  0
    4.8208   -0.9640    0.0000 C   0  0  0  0  0  0  0  0  0  0  0  0
    4.0719   -0.6297    0.0000 C   0  0  0  0  0  0  0  0  0  0  0  0
    3.5209   -1.2438    0.0000 C   0  0  0  0  0  0  0  0  0  0  0  0
    3.8156    0.1545    0.0000 C   0  0  0  0  0  0  0  0  0  0  0  0
    2.7136   -1.0736    0.0000 C   0  0  0  0  0  0  0  0  0  0  0  0
    3.0083    0.3246    0.0000 C   0  0  0  0  0  0  0  0  0  0  0  0
    2.4573   -0.2894    0.0000 C   0  0  0  0  0  0  0  0  0  0  0  0
  1 10  1  0  0  0  0
  2  3  1  0  0  0  0
  2  6  1  0  0  0  0
  3  4  2  0  0  0  0
  4  5  1  0  0  0  0
  5  6  2  0  0  0  0
  5  7  1  0  0  0  0
  6  8  1  0  0  0  0
  7  9  2  0  0  0  0
  8 10  2  0  0  0  0
  9 10  1  0  0  0  0
M  END
$$$$
Cc1nc2CCCCn2c(=O)c1C
 OpenBabel07182308452D

 13 14  0  0  0  0  0  0  0  0999 V2000
    9.8223   -0.5514    0.0000 O   0  0  0  0  0  0  0  0  0  0  0  0
   10.5367    0.6861    0.0000 N   0  0  0  0  0  0  0  0  0  0  0  0
    9.8223    1.9236    0.0000 N   0  0  0  0  0  0  0  0  0  0  0  0
    8.3932    0.2736    0.0000 C   0  0  0  0  0  0  0  0  0  0  0  0
    9.1078    0.6861    0.0000 C   0  0  0  0  0  0  0  0  0  0  0  0
   11.2742    0.2450    0.0000 C   0  0  0  0  0  0  0  0  0  0  0  0
   12.0218    0.6689    0.0000 C   0  0  0  0  0  0  0  0  0  0  0  0
   10.5367    1.5111    0.0000 C   0  0  0  0  0  0  0  0  0  0  0  0
   12.0218    1.5283    0.0000 C   0  0  0  0  0  0  0  0  0  0  0  0
   11.2742    1.9522    0.0000 C   0  0  0  0  0  0  0  0  0  0  0  0
    9.8223    0.2736    0.0000 C   0  0  0  0  0  0  0  0  0  0  0  0
    9.1078    1.5111    0.0000 C   0  0  0  0  0  0  0  0  0  0  0  0
    8.3932    1.9236    0.0000 C   0  0  0  0  0  0  0  0  0  0  0  0
  1 11  2  0  0  0  0
  2  6  1  0  0  0  0
  2  8  1  0  0  0  0
  2 11  1  0  0  0  0
  3  8  2  0  0  0  0
  3 12  1  0  0  0  0
  4  5  1  0  0  0  0
  5 11  1  0  0  0  0
  5 12  2  0  0  0  0
  6  7  1  0  0  0  0
  7  9  1  0  0  0  0
  8 10  1  0  0  0  0
  9 10  1  0  0  0  0
 12 13  1  0  0  0  0
M  END
$$$$
Cc1cnc(c(c1)C)C
 OpenBabel07182308452D

  9  9  0  0  0  0  0  0  0  0999 V2000
   -2.4657   -0.7618    0.0000 C   0  0  0  0  0  0  0  0  0  0  0  0
   -1.6407   -0.7614    0.0000 N   0  0  0  0  0  0  0  0  0  0  0  0
   -1.2278   -1.4757    0.0000 C   0  0  0  0  0  0  0  0  0  0  0  0
   -0.4029   -1.4754    0.0000 C   0  0  0  0  0  0  0  0  0  0  0  0
   -1.6400   -2.1903    0.0000 C   0  0  0  0  0  0  0  0  0  0  0  0
   -2.4650   -2.1908    0.0000 C   0  0  0  0  0  0  0  0  0  0  0  0
   -1.2272   -2.9047    0.0000 C   0  0  0  0  0  0  0  0  0  0  0  0
   -2.8779   -1.4764    0.0000 C   0  0  0  0  0  0  0  0  0  0  0  0
   -3.7005   -1.4135    0.0000 C   0  0  0  0  0  0  0  0  0  0  0  0
  1  8  2  0  0  0  0
  1  2  1  0  0  0  0
  3  2  2  0  0  0  0
  3  4  1  0  0  0  0
  5  3  1  0  0  0  0
  5  7  1  0  0  0  0
  6  5  2  0  0  0  0
  8  6  1  0  0  0  0
  8  9  1  0  0  0  0
M  END
$$$$
O=S
 OpenBabel07182308452D

  2  1  0  0  0  0  0  0  0  0999 V2000
   -0.1058   -0.0776    0.0000 O   0  0  0  0  0  0  0  0  0  0  0  0
    0.1492   -0.8623    0.0000 S   0  0  0  0  0  0  0  0  0  0  0  0
  2  1  2  0  0  0  0
M  END
$$$$
O=C1CNC(N1)(C)C
 OpenBabel07182308452D

  9  9  0  0  1  0  0  0  0  0999 V2000
    4.0907    0.0663    0.0000 O   0  0  0  0  0  0  0  0  0  0  0  0
    5.2819    0.9280    0.0000 N   0  0  0  0  0  0  0  0  0  0  0  0
    4.6784    2.1187    0.0000 N   0  0  0  0  0  0  0  0  0  0  0  0
    5.4126    1.7427    0.0000 C   0  0  0  0  0  0  0  0  0  0  0  0
    4.4668    0.8007    0.0000 C   0  0  0  0  0  0  0  0  0  0  0  0
    4.0938    1.5365    0.0000 C   0  0  0  0  0  0  0  0  0  0  0  0
    6.2272    1.6119    0.0000 C   0  0  0  0  0  0  0  0  0  0  0  0
    5.7886    2.4769    0.0000 C   0  0  0  0  0  0  0  0  0  0  0  0
    4.5209    3.1265    0.0000 H   0  0  0  0  0  0  0  0  0  0  0  0
  1  5  2  0  0  0  0
  2  4  1  0  0  0  0
  2  5  1  0  0  0  0
  3  4  1  0  0  0  0
  3  6  1  0  0  0  0
  3  9  1  0  0  0  0
  4  7  1  0  0  0  0
  4  8  1  0  0  0  0
  5  6  1  0  0  0  0
M  END
$$$$
Oc1ccc2c(c1)sc(n2)N
 OpenBabel07182308452D

 13 14  0  0  0  0  0  0  0  0999 V2000
    6.0031    0.5129    0.0000 S   0  0  0  0  0  0  0  0  0  0  0  0
    3.0791    0.6740    0.0000 O   0  0  0  0  0  0  0  0  0  0  0  0
    6.0031   -0.8149    0.0000 N   0  0  0  0  0  0  0  0  0  0  0  0
    7.3097   -0.1510    0.0000 N   0  0  0  0  0  0  0  0  0  0  0  0
    5.2224    0.2615    0.0000 C   0  0  0  0  0  0  0  0  0  0  0  0
    5.2224   -0.5635    0.0000 C   0  0  0  0  0  0  0  0  0  0  0  0
    4.5080    0.6740    0.0000 C   0  0  0  0  0  0  0  0  0  0  0  0
    3.7935    0.2615    0.0000 C   0  0  0  0  0  0  0  0  0  0  0  0
    4.5080   -0.9760    0.0000 C   0  0  0  0  0  0  0  0  0  0  0  0
    3.7935   -0.5635    0.0000 C   0  0  0  0  0  0  0  0  0  0  0  0
    6.4846   -0.1510    0.0000 C   0  0  0  0  0  0  0  0  0  0  0  0
    7.8020   -1.0036    0.0000 H   0  0  0  0  0  0  0  0  0  0  0  0
    7.8019    0.7016    0.0000 H   0  0  0  0  0  0  0  0  0  0  0  0
  1  5  1  0  0  0  0
  1 11  1  0  0  0  0
  2  8  1  0  0  0  0
  3  6  1  0  0  0  0
  3 11  2  0  0  0  0
  4 11  1  0  0  0  0
  4 12  1  0  0  0  0
  4 13  1  0  0  0  0
  5  6  2  0  0  0  0
  5  7  1  0  0  0  0
  6  9  1  0  0  0  0
  7  8  2  0  0  0  0
  8 10  1  0  0  0  0
  9 10  2  0  0  0  0
M  END
$$$$
O=C1CC[C@]2(C(=C1)CC[C@@H]1[C@@H]2[C@@H](O)C[C@]2([C@H]1CC[C@H]2O)C)C
 OpenBabel07182308452D

 27 30  0  0  0  0  0  0  0  0999 V2000
    0.3221   -1.5712    0.0000 C   0  0  0  0  0  0  0  0  0  0  0  0
   -0.3924   -1.9836    0.0000 C   0  0  0  0  0  0  0  0  0  0  0  0
   -1.1068   -1.5712    0.0000 C   0  0  0  0  0  0  0  0  0  0  0  0
   -1.8213   -1.9836    0.0000 C   0  0  0  0  0  0  0  0  0  0  0  0
   -2.5358   -0.7462    0.0000 C   0  0  0  0  0  0  0  0  0  0  0  0
   -1.8213   -0.3337    0.0000 C   0  0  0  0  0  0  0  0  0  0  0  0
    0.3221    0.9037    0.0000 C   0  0  0  0  0  0  0  0  0  0  0  0
    2.3062    0.0787    0.0000 C   0  0  0  0  0  0  0  0  0  0  0  0
    1.8212   -0.5886    0.0000 C   0  0  0  0  0  0  0  0  0  0  0  0
   -0.3924   -0.3337    0.0000 C   0  0  2  0  0  0  0  0  0  0  0  0
   -0.3924   -1.1587    0.0000 H   0  0  0  0  0  0  0  0  0  0  0  0
    1.0366   -0.3337    0.0000 C   0  0  1  0  0  0  0  0  0  0  0  0
    1.0366   -1.1587    0.0000 H   0  0  0  0  0  0  0  0  0  0  0  0
    0.3221   -0.7462    0.0000 C   0  0  2  0  0  0  0  0  0  0  0  0
    0.3221    0.0787    0.0000 H   0  0  0  0  0  0  0  0  0  0  0  0
    1.0366    0.4912    0.0000 C   0  0  1  0  0  0  0  0  0  0  0  0
    1.8212    0.7462    0.0000 C   0  0  2  0  0  0  0  0  0  0  0  0
   -2.5358   -1.5712    0.0000 C   0  0  0  0  0  0  0  0  0  0  0  0
   -3.2502   -1.9837    0.0000 O   0  0  0  0  0  0  0  0  0  0  0  0
   -0.3924    0.4912    0.0000 C   0  0  1  0  0  0  0  0  0  0  0  0
   -1.1069    0.9037    0.0000 O   0  0  0  0  0  0  0  0  0  0  0  0
    2.5358    1.1587    0.0000 O   0  0  0  0  0  0  0  0  0  0  0  0
    1.0366    1.3162    0.0000 C   0  0  0  0  0  0  0  0  0  0  0  0
   -1.1068   -0.7462    0.0000 C   0  0  2  0  0  0  0  0  0  0  0  0
   -1.1068    0.0787    0.0000 C   0  0  0  0  0  0  0  0  0  0  0  0
   -1.1069    1.8737    0.0000 H   0  0  0  0  0  0  0  0  0  0  0  0
    3.3758    0.6736    0.0000 H   0  0  0  0  0  0  0  0  0  0  0  0
  1  2  1  0  0  0  0
  2  3  1  0  0  0  0
  3  4  2  0  0  0  0
  3 24  1  0  0  0  0
  4 18  1  0  0  0  0
  5  6  1  0  0  0  0
  6 24  1  0  0  0  0
  7 16  1  0  0  0  0
  8  9  1  0  0  0  0
  9 12  1  0  0  0  0
 10 14  1  1  0  0  0
 10 11  1  0  0  0  0
 12 14  1  1  0  0  0
 12 13  1  0  0  0  0
 14  1  1  0  0  0  0
 14 15  1  1  0  0  0
 16 12  1  1  0  0  0
 16 23  1  0  0  0  0
 17 16  1  6  0  0  0
 17  8  1  0  0  0  0
 17 22  1  0  0  0  0
 18  5  1  0  0  0  0
 18 19  2  0  0  0  0
 20 10  1  1  0  0  0
 20  7  1  0  0  0  0
 20 21  1  0  0  0  0
 21 26  1  0  0  0  0
 22 27  1  0  0  0  0
 24 10  1  6  0  0  0
 24 25  1  0  0  0  0
M  END
$$$$
N
 OpenBabel07182308452D

  1  0  0  0  0  0  0  0  0  0999 V2000
   -3.9138    0.1111    0.0000 N   0  0  0  0  0  0  0  0  0  0  0  0
M  END
$$$$
c1ccc2c(c1)scc2
 OpenBabel07182308452D

  9 10  0  0  1  0  0  0  0  0999 V2000
    3.8597    1.1874    0.0000 S   0  0  0  0  0  0  0  0  0  0  0  0
    4.3412    0.5235    0.0000 C   0  0  0  0  0  0  0  0  0  0  0  0
    3.0791    0.1110    0.0000 C   0  0  0  0  0  0  0  0  0  0  0  0
    3.8597   -0.1404    0.0000 C   0  0  0  0  0  0  0  0  0  0  0  0
    3.0791    0.9360    0.0000 C   0  0  0  0  0  0  0  0  0  0  0  0
    2.3645   -0.3015    0.0000 C   0  0  0  0  0  0  0  0  0  0  0  0
    2.3645    1.3485    0.0000 C   0  0  0  0  0  0  0  0  0  0  0  0
    1.6500    0.1110    0.0000 C   0  0  0  0  0  0  0  0  0  0  0  0
    1.6500    0.9360    0.0000 C   0  0  0  0  0  0  0  0  0  0  0  0
  1  2  1  0  0  0  0
  1  5  1  0  0  0  0
  2  4  2  0  0  0  0
  3  4  1  0  0  0  0
  3  5  1  0  0  0  0
  3  6  2  0  0  0  0
  5  7  2  0  0  0  0
  6  8  1  0  0  0  0
  7  9  1  0  0  0  0
  8  9  2  0  0  0  0
M  END
$$$$
CS(=O)C
 OpenBabel07182308452D

  4  3  0  0  1  0  0  0  0  0999 V2000
    3.0791    0.2846    0.0000 S   0  0  0  0  0  0  0  0  0  0  0  0
    2.3645   -0.1279    0.0000 O   0  0  0  0  0  0  0  0  0  0  0  0
    3.7935   -0.1279    0.0000 C   0  0  0  0  0  0  0  0  0  0  0  0
    3.0791    1.1096    0.0000 C   0  0  0  0  0  0  0  0  0  0  0  0
  1  2  2  0  0  0  0
  1  3  1  0  0  0  0
  1  4  1  0  0  0  0
M  END
$$$$
CNO
 OpenBabel07182308452D

  4  3  0  0  0  0  0  0  0  0999 V2000
    0.6937   -1.6915    0.0000 N   0  0  0  0  0  0  0  0  0  0  0  0
    0.2770   -0.9792    0.0000 O   0  0  0  0  0  0  0  0  0  0  0  0
    0.2812   -2.4125    0.0000 C   0  0  0  0  0  0  0  0  0  0  0  0
    0.7572   -0.1364    0.0000 H   0  0  0  0  0  0  0  0  0  0  0  0
  1  3  1  0  0  0  0
  2  1  1  0  0  0  0
  2  4  1  0  0  0  0
M  END
$$$$
O[C@@H]1C[C@@H]2[C@@H]3[C@H]([C@H](C1)N2C)O3
 OpenBabel07182308452D

 11 13  0  0  1  0  0  0  0  0999 V2000
   16.9197  -13.7280    0.0000 C   0  0  1  0  0  0  0  0  0  0  0  0
   16.9196  -15.5818    0.0000 C   0  0  2  0  0  0  0  0  0  0  0  0
   17.7239  -15.3982    0.0000 C   0  0  0  0  0  0  0  0  0  0  0  0
   17.7240  -13.9116    0.0000 C   0  0  0  0  0  0  0  0  0  0  0  0
   16.2746  -14.2424    0.0000 C   0  0  1  0  0  0  0  0  0  0  0  0
   16.2746  -15.0674    0.0000 C   0  0  2  0  0  0  0  0  0  0  0  0
   15.5602  -14.6549    0.0000 O   0  0  0  0  0  0  0  0  0  0  0  0
   16.7692  -14.6346    0.0000 N   0  0  0  0  0  0  0  0  0  0  0  0
   17.4713  -14.6346    0.0000 C   0  0  0  0  0  0  0  0  0  0  0  0
   18.0819  -14.6549    0.0000 C   0  0  2  0  0  0  0  0  0  0  0  0
   18.9069  -14.6549    0.0000 O   0  0  0  0  0  0  0  0  0  0  0  0
  1  5  1  0  0  0  0
  1  4  1  6  0  0  0
  1  8  1  0  0  0  0
  2  3  1  6  0  0  0
  2  8  1  0  0  0  0
  3 10  1  0  0  0  0
  5  6  1  0  0  0  0
  5  7  1  1  0  0  0
  6  2  1  0  0  0  0
  6  7  1  1  0  0  0
  8  9  1  0  0  0  0
 10  4  1  0  0  0  0
 10 11  1  6  0  0  0
M  END
$$$$
CC1OCCc2c1[nH]c1c2cccc1
 OpenBabel07182308452D

 15 17  0  0  1  0  0  0  0  0999 V2000
    6.2901   -0.5042    0.0000 O   0  0  0  0  0  0  0  0  0  0  0  0
    4.2053    0.4231    0.0000 N   0  0  0  0  0  0  0  0  0  0  0  0
    5.7102    0.1298    0.0000 C   0  0  3  0  0  0  0  0  0  0  0  0
    4.8726   -0.0618    0.0000 C   0  0  0  0  0  0  0  0  0  0  0  0
    4.6178   -0.8463    0.0000 C   0  0  0  0  0  0  0  0  0  0  0  0
    5.1828   -1.4936    0.0000 C   0  0  0  0  0  0  0  0  0  0  0  0
    6.3168    0.6888    0.0000 C   0  0  0  0  0  0  0  0  0  0  0  0
    3.7929   -0.8463    0.0000 C   0  0  0  0  0  0  0  0  0  0  0  0
    6.0246   -1.3214    0.0000 C   0  0  0  0  0  0  0  0  0  0  0  0
    3.5380   -0.0618    0.0000 C   0  0  0  0  0  0  0  0  0  0  0  0
    2.7004    0.1298    0.0000 C   0  0  0  0  0  0  0  0  0  0  0  0
    3.2278   -1.4936    0.0000 C   0  0  0  0  0  0  0  0  0  0  0  0
    2.1206   -0.5042    0.0000 C   0  0  0  0  0  0  0  0  0  0  0  0
    2.3860   -1.3214    0.0000 C   0  0  0  0  0  0  0  0  0  0  0  0
    4.2053    1.4076    0.0000 H   0  0  0  0  0  0  0  0  0  0  0  0
  1  3  1  0  0  0  0
  1  9  1  0  0  0  0
  2  4  1  0  0  0  0
  2 10  1  0  0  0  0
  2 15  1  0  0  0  0
  3  4  1  0  0  0  0
  3  7  1  0  0  0  0
  4  5  2  0  0  0  0
  5  6  1  0  0  0  0
  5  8  1  0  0  0  0
  6  9  1  0  0  0  0
  8 10  1  0  0  0  0
  8 12  2  0  0  0  0
 10 11  2  0  0  0  0
 11 13  1  0  0  0  0
 12 14  1  0  0  0  0
 13 14  2  0  0  0  0
M  END
$$$$
NC1=NCC2N1c1ccccc1Cc1c2cccc1
 OpenBabel07182308452D

 21 24  0  0  1  0  0  0  0  0999 V2000
    3.5990   -0.4158    0.0000 N   0  0  0  0  0  0  0  0  0  0  0  0
    2.7164   -1.3358    0.0000 N   0  0  0  0  0  0  0  0  0  0  0  0
    4.0629   -1.7442    0.0000 N   0  0  0  0  0  0  0  0  0  0  0  0
    2.8853   -0.0722    0.0000 C   0  0  3  0  0  0  0  0  0  0  0  0
    2.7091    0.7001    0.0000 C   0  0  0  0  0  0  0  0  0  0  0  0
    2.3427   -0.6427    0.0000 C   0  0  0  0  0  0  0  0  0  0  0  0
    4.3126   -0.0722    0.0000 C   0  0  0  0  0  0  0  0  0  0  0  0
    3.2029    1.3193    0.0000 C   0  0  0  0  0  0  0  0  0  0  0  0
    3.9951    1.3193    0.0000 C   0  0  0  0  0  0  0  0  0  0  0  0
    4.4889    0.7001    0.0000 C   0  0  0  0  0  0  0  0  0  0  0  0
    3.4913   -1.1959    0.0000 C   0  0  0  0  0  0  0  0  0  0  0  0
    1.8914    0.8104    0.0000 C   0  0  0  0  0  0  0  0  0  0  0  0
    2.9133    2.0918    0.0000 C   0  0  0  0  0  0  0  0  0  0  0  0
    4.9087   -0.6426    0.0000 C   0  0  0  0  0  0  0  0  0  0  0  0
    5.2734    0.9553    0.0000 C   0  0  0  0  0  0  0  0  0  0  0  0
    1.5842    1.5760    0.0000 C   0  0  0  0  0  0  0  0  0  0  0  0
    2.0985    2.2212    0.0000 C   0  0  0  0  0  0  0  0  0  0  0  0
    5.6990   -0.4056    0.0000 C   0  0  0  0  0  0  0  0  0  0  0  0
    5.8826    0.3989    0.0000 C   0  0  0  0  0  0  0  0  0  0  0  0
    3.8279   -2.7002    0.0000 H   0  0  0  0  0  0  0  0  0  0  0  0
    5.0083   -1.4697    0.0000 H   0  0  0  0  0  0  0  0  0  0  0  0
  1  4  1  0  0  0  0
  1  7  1  0  0  0  0
  1 11  1  0  0  0  0
  2  6  1  0  0  0  0
  2 11  2  0  0  0  0
  3 11  1  0  0  0  0
  3 20  1  0  0  0  0
  3 21  1  0  0  0  0
  4  5  1  0  0  0  0
  4  6  1  0  0  0  0
  5  8  1  0  0  0  0
  5 12  2  0  0  0  0
  7 10  1  0  0  0  0
  7 14  2  0  0  0  0
  8  9  1  0  0  0  0
  8 13  2  0  0  0  0
  9 10  1  0  0  0  0
 10 15  2  0  0  0  0
 12 16  1  0  0  0  0
 13 17  1  0  0  0  0
 14 18  1  0  0  0  0
 15 19  1  0  0  0  0
 16 17  2  0  0  0  0
 18 19  2  0  0  0  0
M  END
$$$$
NC1CC1
 OpenBabel07182308452D

  6  6  0  0  0  0  0  0  0  0999 V2000
    0.7145   -0.4125    0.0000 N   0  0  0  0  0  0  0  0  0  0  0  0
    0.7145   -1.2375    0.0000 C   0  0  0  0  0  0  0  0  0  0  0  0
    1.1270   -1.9520    0.0000 C   0  0  0  0  0  0  0  0  0  0  0  0
    0.3020   -1.9520    0.0000 C   0  0  0  0  0  0  0  0  0  0  0  0
    1.5978    0.0975    0.0000 H   0  0  0  0  0  0  0  0  0  0  0  0
   -0.1688    0.0975    0.0000 H   0  0  0  0  0  0  0  0  0  0  0  0
  1  2  1  0  0  0  0
  1  5  1  0  0  0  0
  1  6  1  0  0  0  0
  2  3  1  0  0  0  0
  2  4  1  0  0  0  0
  3  4  1  0  0  0  0
M  END
$$$$
OCCl
 OpenBabel07182308452D

  3  2  0  0  1  0  0  0  0  0999 V2000
    3.0791    0.9760    0.0000 Cl  0  0  0  0  0  0  0  0  0  0  0  0
    3.7935   -0.2615    0.0000 O   0  0  0  0  0  0  0  0  0  0  0  0
    3.0791    0.1510    0.0000 C   0  0  0  0  0  0  0  0  0  0  0  0
  1  3  1  0  0  0  0
  2  3  1  0  0  0  0
M  END
$$$$
Oc1c(Cl)cc(c(c1C)Cl)Cl
 OpenBabel07182308452D

 12 12  0  0  0  0  0  0  0  0999 V2000
    5.1469    0.1168    0.0000 Cl  0  0  0  0  0  0  0  0  0  0  0  0
    3.0257    2.6447    0.0000 Cl  0  0  0  0  0  0  0  0  0  0  0  0
    5.7112    1.6673    0.0000 Cl  0  0  0  0  0  0  0  0  0  0  0  0
    2.4613    1.0943    0.0000 O   0  0  0  0  0  0  0  0  0  0  0  0
    3.5220   -0.1697    0.0000 C   0  0  0  0  0  0  0  0  0  0  0  0
    3.8041    0.6056    0.0000 C   0  0  0  0  0  0  0  0  0  0  0  0
    3.2738    1.2375    0.0000 C   0  0  0  0  0  0  0  0  0  0  0  0
    4.6166    0.7488    0.0000 C   0  0  0  0  0  0  0  0  0  0  0  0
    3.5560    2.0128    0.0000 C   0  0  0  0  0  0  0  0  0  0  0  0
    4.8988    1.5240    0.0000 C   0  0  0  0  0  0  0  0  0  0  0  0
    4.3684    2.1560    0.0000 C   0  0  0  0  0  0  0  0  0  0  0  0
    1.8591    1.8121    0.0000 H   0  0  0  0  0  0  0  0  0  0  0  0
  1  8  1  0  0  0  0
  2  9  1  0  0  0  0
  3 10  1  0  0  0  0
  4  7  1  0  0  0  0
  4 12  1  0  0  0  0
  5  6  1  0  0  0  0
  6  7  2  0  0  0  0
  6  8  1  0  0  0  0
  7  9  1  0  0  0  0
  8 10  2  0  0  0  0
  9 11  2  0  0  0  0
 10 11  1  0  0  0  0
M  END
$$$$
Clc1cc(Cl)c(cc1O)Cl
 OpenBabel07182308452D

 11 11  0  0  0  0  0  0  0  0999 V2000
    4.9509   -0.9947    0.0000 Cl  0  0  0  0  0  0  0  0  0  0  0  0
    2.0930   -2.6447    0.0000 Cl  0  0  0  0  0  0  0  0  0  0  0  0
    4.9509   -2.6447    0.0000 Cl  0  0  0  0  0  0  0  0  0  0  0  0
    2.0930   -0.9947    0.0000 O   0  0  0  0  0  0  0  0  0  0  0  0
    3.5220   -0.9947    0.0000 C   0  0  0  0  0  0  0  0  0  0  0  0
    2.8075   -1.4072    0.0000 C   0  0  0  0  0  0  0  0  0  0  0  0
    4.2364   -1.4072    0.0000 C   0  0  0  0  0  0  0  0  0  0  0  0
    2.8075   -2.2322    0.0000 C   0  0  0  0  0  0  0  0  0  0  0  0
    4.2364   -2.2322    0.0000 C   0  0  0  0  0  0  0  0  0  0  0  0
    3.5220   -2.6447    0.0000 C   0  0  0  0  0  0  0  0  0  0  0  0
    2.0930   -0.0577    0.0000 H   0  0  0  0  0  0  0  0  0  0  0  0
  1  7  1  0  0  0  0
  2  8  1  0  0  0  0
  3  9  1  0  0  0  0
  4  6  1  0  0  0  0
  4 11  1  0  0  0  0
  5  6  2  0  0  0  0
  5  7  1  0  0  0  0
  6  8  1  0  0  0  0
  7  9  2  0  0  0  0
  8 10  2  0  0  0  0
  9 10  1  0  0  0  0
M  END
$$$$
O[C@@H]1C[C@@H]2C[C@H]3C[C@H](C1)N2CC3=O
 OpenBabel07182308452D

 17 19  0  0  0  0  0  0  0  0999 V2000
    0.9481   -1.5735    0.0000 C   0  0  1  0  0  0  0  0  0  0  0  0
    1.6626   -1.1611    0.0000 N   0  0  3  0  0  0  0  0  0  0  0  0
    1.6626   -0.3360    0.0000 C   0  0  2  0  0  0  0  0  0  0  0  0
    0.9481    0.0764    0.0000 C   0  0  0  0  0  0  0  0  0  0  0  0
    0.2337   -0.3360    0.0000 C   0  0  2  0  0  0  0  0  0  0  0  0
    0.2337   -1.1611    0.0000 C   0  0  0  0  0  0  0  0  0  0  0  0
    2.3771    0.0764    0.0000 C   0  0  0  0  0  0  0  0  0  0  0  0
    3.0916   -0.3360    0.0000 C   0  0  2  0  0  0  0  0  0  0  0  0
    3.0916   -1.1611    0.0000 C   0  0  0  0  0  0  0  0  0  0  0  0
    2.3771   -1.5735    0.0000 C   0  0  0  0  0  0  0  0  0  0  0  0
    3.8060   -1.5734    0.0000 O   0  0  0  0  0  0  0  0  0  0  0  0
    3.8060    0.0765    0.0000 H   0  0  0  0  0  0  0  0  0  0  0  0
    1.6626    0.4888    0.0000 H   0  0  0  0  0  0  0  0  0  0  0  0
   -0.4807   -0.7486    0.0000 H   0  0  0  0  0  0  0  0  0  0  0  0
   -0.1787    0.3783    0.0000 O   0  0  0  0  0  0  0  0  0  0  0  0
    0.9481   -2.3986    0.0000 H   0  0  0  0  0  0  0  0  0  0  0  0
    1.5891   -1.9258    0.0000 C   0  0  0  0  0  0  0  0  0  0  0  0
  1  2  1  1  0  0  0
  1 16  1  0  0  0  0
  1 17  1  0  0  0  0
  3  4  1  0  0  0  0
  3  2  1  1  0  0  0
  3  7  1  0  0  0  0
  3 13  1  0  0  0  0
  4  5  1  0  0  0  0
  5  6  1  0  0  0  0
  5 14  1  1  0  0  0
  5 15  1  0  0  0  0
  6  1  1  0  0  0  0
  7  8  1  0  0  0  0
  8  9  1  0  0  0  0
  8 12  1  1  0  0  0
  8 17  1  0  0  0  0
  9 10  1  0  0  0  0
  9 11  2  0  0  0  0
 10  2  1  0  0  0  0
M  END
$$$$
[K+]
 OpenBabel07182308452D

  1  0  0  0  0  0  0  0  0  0999 V2000
    0.0000    0.0000    0.0000 K   0  3  0  0  0 15  0  0  0  0  0  0
M  CHG  1   1   1
M  END
$$$$
[Cl-]
 OpenBabel07182308452D

  1  0  0  0  0  0  0  0  0  0999 V2000
    1.0000    0.0000    0.0000 Cl  0  5  0  0  0  0  0  0  0  0  0  0
M  CHG  1   1  -1
M  END
$$$$
O=C1OCc2c([C@@H]1O)cc1n(c2=O)Cc2c1nc1ccc(cc1c2)O
 OpenBabel07182308452D

 26 30  0  0  0  0  0  0  0  0999 V2000
   -2.2303    1.6566    0.0000 C   0  0  0  0  0  0  0  0  0  0  0  0
   -2.2303    0.8316    0.0000 C   0  0  0  0  0  0  0  0  0  0  0  0
   -1.5158    0.4191    0.0000 C   0  0  0  0  0  0  0  0  0  0  0  0
   -0.8014    0.8316    0.0000 C   0  0  0  0  0  0  0  0  0  0  0  0
   -0.8014    1.6566    0.0000 C   0  0  0  0  0  0  0  0  0  0  0  0
   -1.5158    2.0691    0.0000 C   0  0  0  0  0  0  0  0  0  0  0  0
   -0.0869    0.4191    0.0000 N   0  0  0  0  0  0  0  0  0  0  0  0
    0.6275    0.8316    0.0000 C   0  0  0  0  0  0  0  0  0  0  0  0
    0.6275    1.6566    0.0000 C   0  0  0  0  0  0  0  0  0  0  0  0
   -0.0869    2.0691    0.0000 C   0  0  0  0  0  0  0  0  0  0  0  0
   -2.9447    2.0691    0.0000 O   0  0  0  0  0  0  0  0  0  0  0  0
    1.4121    0.5767    0.0000 C   0  0  0  0  0  0  0  0  0  0  0  0
    1.8971    1.2441    0.0000 N   0  0  0  0  0  0  0  0  0  0  0  0
    1.4121    1.9116    0.0000 C   0  0  0  0  0  0  0  0  0  0  0  0
    2.7197    1.2441    0.0000 C   0  0  0  0  0  0  0  0  0  0  0  0
    3.1321    0.5297    0.0000 C   0  0  0  0  0  0  0  0  0  0  0  0
    2.7253   -0.1747    0.0000 C   0  0  0  0  0  0  0  0  0  0  0  0
    1.8947   -0.1747    0.0000 C   0  0  0  0  0  0  0  0  0  0  0  0
    3.1377   -0.8892    0.0000 C   0  0  1  0  0  0  0  0  0  0  0  0
    3.9627   -0.8894    0.0000 C   0  0  0  0  0  0  0  0  0  0  0  0
    4.3696   -0.1848    0.0000 O   0  0  0  0  0  0  0  0  0  0  0  0
    3.9571    0.5296    0.0000 C   0  0  0  0  0  0  0  0  0  0  0  0
    3.1321    1.9586    0.0000 O   0  0  0  0  0  0  0  0  0  0  0  0
    4.3787   -1.6099    0.0000 O   0  0  0  0  0  0  0  0  0  0  0  0
    3.1377   -1.7258    0.0000 O   0  0  0  0  0  0  0  0  0  0  0  0
    2.2977   -2.2108    0.0000 H   0  0  0  0  0  0  0  0  0  0  0  0
  1  2  2  0  0  0  0
  1  6  1  0  0  0  0
  1 11  1  0  0  0  0
  2  3  1  0  0  0  0
  3  4  2  0  0  0  0
  4  5  1  0  0  0  0
  4  7  1  0  0  0  0
  5  6  2  0  0  0  0
  5 10  1  0  0  0  0
  7  8  2  0  0  0  0
  8  9  1  0  0  0  0
  8 12  1  0  0  0  0
  9 10  2  0  0  0  0
  9 14  1  0  0  0  0
 12 13  1  0  0  0  0
 13 14  1  0  0  0  0
 13 15  1  0  0  0  0
 15 16  1  0  0  0  0
 15 23  2  0  0  0  0
 16 17  2  0  0  0  0
 16 22  1  0  0  0  0
 17 18  1  0  0  0  0
 17 19  1  0  0  0  0
 18 12  2  0  0  0  0
 19 20  1  0  0  0  0
 19 25  1  1  0  0  0
 20 21  1  0  0  0  0
 20 24  2  0  0  0  0
 21 22  1  0  0  0  0
 25 26  1  0  0  0  0
M  END
$$$$
C=C1O[C@H]2N(C1)C(=O)C2
 OpenBabel07182308452D

 10 11  0  0  1  0  0  0  0  0999 V2000
    3.8486    1.1438    0.0000 O   0  0  0  0  0  0  0  0  0  0  0  0
    1.6500   -0.5242    0.0000 O   0  0  0  0  0  0  0  0  0  0  0  0
    3.0640    0.0638    0.0000 N   0  0  0  0  0  0  0  0  0  0  0  0
    3.0640    0.8888    0.0000 C   0  0  1  0  0  0  0  0  0  0  0  0
    3.8486   -0.1912    0.0000 C   0  0  0  0  0  0  0  0  0  0  0  0
    2.2322    0.8922    0.0000 C   0  0  0  0  0  0  0  0  0  0  0  0
    2.2322    0.0604    0.0000 C   0  0  0  0  0  0  0  0  0  0  0  0
    4.3336    0.4763    0.0000 C   0  0  0  0  0  0  0  0  0  0  0  0
    5.1586    0.4763    0.0000 C   0  0  0  0  0  0  0  0  0  0  0  0
    2.9621    1.5409    0.0000 H   0  0  0  0  0  0  0  0  0  0  0  0
  1  4  1  0  0  0  0
  1  8  1  0  0  0  0
  2  7  2  0  0  0  0
  3  4  1  0  0  0  0
  3  5  1  0  0  0  0
  3  7  1  0  0  0  0
  4  6  1  0  0  0  0
  4 10  1  6  0  0  0
  5  8  1  0  0  0  0
  6  7  1  0  0  0  0
  8  9  2  0  0  0  0
M  END
$$$$
C/C=C/1\c2cc(C)ccc2OCc2c1cccc2
 OpenBabel07182308452D

 18 20  0  0  0  0  0  0  0  0999 V2000
    5.9086    2.5536    0.0000 O   0  0  0  0  0  0  0  0  0  0  0  0
    6.3211    0.7464    0.0000 C   0  0  0  0  0  0  0  0  0  0  0  0
    5.5778    1.1043    0.0000 C   0  0  0  0  0  0  0  0  0  0  0  0
    7.0644    1.1043    0.0000 C   0  0  0  0  0  0  0  0  0  0  0  0
    7.2480    1.9086    0.0000 C   0  0  0  0  0  0  0  0  0  0  0  0
    5.3942    1.9086    0.0000 C   0  0  0  0  0  0  0  0  0  0  0  0
    5.6066   -0.4911    0.0000 C   0  0  0  0  0  0  0  0  0  0  0  0
    6.3211   -0.0786    0.0000 C   0  0  0  0  0  0  0  0  0  0  0  0
    6.7336    2.5536    0.0000 C   0  0  0  0  0  0  0  0  0  0  0  0
    4.9569    0.5102    0.0000 C   0  0  0  0  0  0  0  0  0  0  0  0
    4.1338    0.7571    0.0000 C   0  0  0  0  0  0  0  0  0  0  0  0
    7.6853    0.5102    0.0000 C   0  0  0  0  0  0  0  0  0  0  0  0
    4.5770    2.1745    0.0000 C   0  0  0  0  0  0  0  0  0  0  0  0
    8.0651    2.1745    0.0000 C   0  0  0  0  0  0  0  0  0  0  0  0
    3.9426    1.5950    0.0000 C   0  0  0  0  0  0  0  0  0  0  0  0
    3.5312    0.1937    0.0000 C   0  0  0  0  0  0  0  0  0  0  0  0
    8.5083    0.7571    0.0000 C   0  0  0  0  0  0  0  0  0  0  0  0
    8.6995    1.5949    0.0000 C   0  0  0  0  0  0  0  0  0  0  0  0
  1  6  1  0  0  0  0
  1  9  1  0  0  0  0
  2  3  1  0  0  0  0
  2  4  1  0  0  0  0
  2  8  2  0  0  0  0
  3  6  2  0  0  0  0
  3 10  1  0  0  0  0
  4  5  1  0  0  0  0
  4 12  2  0  0  0  0
  5  9  1  0  0  0  0
  5 14  2  0  0  0  0
  6 13  1  0  0  0  0
  7  8  1  0  0  0  0
 10 11  2  0  0  0  0
 11 15  1  0  0  0  0
 11 16  1  0  0  0  0
 12 17  1  0  0  0  0
 13 15  2  0  0  0  0
 14 18  1  0  0  0  0
 17 18  2  0  0  0  0
M  END
$$$$
O[C@@H]1CC(=O)[C@@H](C1)C
 OpenBabel07182308452D

  9  9  0  0  0  0  0  0  0  0999 V2000
   -2.2225    0.4234    0.0000 C   0  0  2  0  0  0  0  0  0  0  0  0
   -2.2260   -0.4063    0.0000 C   0  0  0  0  0  0  0  0  0  0  0  0
   -3.0113    0.6773    0.0000 C   0  0  0  0  0  0  0  0  0  0  0  0
   -1.5092    0.8385    0.0000 C   0  0  0  0  0  0  0  0  0  0  0  0
   -3.0011   -0.6602    0.0000 C   0  0  1  0  0  0  0  0  0  0  0  0
   -3.4950    0.0051    0.0000 C   0  0  0  0  0  0  0  0  0  0  0  0
   -3.2686    1.4593    0.0000 O   0  0  0  0  0  0  0  0  0  0  0  0
   -3.2481   -1.4457    0.0000 O   0  0  0  0  0  0  0  0  0  0  0  0
   -4.1949   -1.6564    0.0000 H   0  0  0  0  0  0  0  0  0  0  0  0
  1  2  1  0  0  0  0
  1  3  1  0  0  0  0
  1  4  1  6  0  0  0
  2  5  1  0  0  0  0
  3  6  1  0  0  0  0
  3  7  2  0  0  0  0
  5  8  1  6  0  0  0
  5  6  1  0  0  0  0
  8  9  1  0  0  0  0
M  END
$$$$
OC1C[N@+]2(C)CC[C@H]1CC2
 OpenBabel07182308452D

 10 11  0  0  1  0  0  0  0  0999 V2000
    4.1207   -4.5812    0.0000 N   0  3  2  0  0  0  0  0  0  0  0  0
    4.8379   -3.3448    0.0000 C   0  0  3  0  0  0  0  0  0  0  0  0
    4.8379   -4.1732    0.0000 C   0  0  0  0  0  0  0  0  0  0  0  0
    4.1207   -2.9369    0.0000 C   0  0  1  0  0  0  0  0  0  0  0  0
    3.4119   -4.1732    0.0000 C   0  0  0  0  0  0  0  0  0  0  0  0
    3.7501   -3.8760    0.0000 C   0  0  0  0  0  0  0  0  0  0  0  0
    3.4119   -3.3448    0.0000 C   0  0  0  0  0  0  0  0  0  0  0  0
    4.4504   -3.6787    0.0000 C   0  0  0  0  0  0  0  0  0  0  0  0
    4.1207   -5.3354    0.0000 C   0  0  0  0  0  0  0  0  0  0  0  0
    5.5510   -2.9301    0.0000 O   0  0  0  0  0  0  0  0  0  0  0  0
  1  3  1  0  0  0  0
  1  9  1  1  0  0  0
  1  6  1  0  0  0  0
  2 10  1  0  0  0  0
  3  2  1  0  0  0  0
  4  2  1  0  0  0  0
  4  7  1  6  0  0  0
  4  8  1  0  0  0  0
  5  7  1  0  0  0  0
  5  1  1  0  0  0  0
  6  8  1  0  0  0  0
M  CHG  1   1   1
M  END
$$$$
SP=S
 OpenBabel07182308452D

  3  2  0  0  1  0  0  0  0  0999 V2000
    3.7935    1.3481    0.0000 S   0  0  0  0  0  0  0  0  0  0  0  0
    3.4916    0.2210    0.0000 S   0  0  0  0  0  0  0  0  0  0  0  0
    3.0791    0.9356    0.0000 P   0  0  0  0  0  0  0  0  0  0  0  0
  1  3  1  0  0  0  0
  2  3  2  0  0  0  0
M  END
$$$$
C[C@@H]1OC[C@@H]2[C@@H](O1)[C@H](O)[C@H](CO2)O
 OpenBabel07182308452D

 17 18  0  0  1  0  0  0  0  0999 V2000
    4.2365    1.0027    0.0000 O   0  0  0  0  0  0  0  0  0  0  0  0
    3.5087    3.0995    0.0000 O   0  0  0  0  0  0  0  0  0  0  0  0
    2.0930    0.5902    0.0000 O   0  0  0  0  0  0  0  0  0  0  0  0
    4.9938    3.1052    0.0000 O   0  0  0  0  0  0  0  0  0  0  0  0
    2.0930    2.2403    0.0000 O   0  0  0  0  0  0  0  0  0  0  0  0
    3.5220    0.5902    0.0000 C   0  0  0  0  0  0  0  0  0  0  0  0
    2.8075    1.0027    0.0000 C   0  0  1  0  0  0  0  0  0  0  0  0
    3.5220    2.2403    0.0000 C   0  0  1  0  0  0  0  0  0  0  0  0
    2.8075    1.8277    0.0000 C   0  0  2  0  0  0  0  0  0  0  0  0
    4.2365    1.8277    0.0000 C   0  0  1  0  0  0  0  0  0  0  0  0
    4.9872    2.2459    0.0000 C   0  0  0  0  0  0  0  0  0  0  0  0
    4.2497    3.5349    0.0000 C   0  0  1  0  0  0  0  0  0  0  0  0
    4.2465    4.3599    0.0000 C   0  0  0  0  0  0  0  0  0  0  0  0
    2.9479    2.5658    0.0000 H   0  0  0  0  0  0  0  0  0  0  0  0
    4.8055    1.4933    0.0000 H   0  0  0  0  0  0  0  0  0  0  0  0
    1.2530    1.0752    0.0000 H   0  0  0  0  0  0  0  0  0  0  0  0
    2.0931    3.2103    0.0000 H   0  0  0  0  0  0  0  0  0  0  0  0
  1  6  1  0  0  0  0
  1 10  1  0  0  0  0
  2  8  1  0  0  0  0
  2 12  1  0  0  0  0
  3 16  1  0  0  0  0
  4 11  1  0  0  0  0
  4 12  1  0  0  0  0
  5 17  1  0  0  0  0
  6  7  1  0  0  0  0
  7  3  1  6  0  0  0
  7  9  1  0  0  0  0
  8 10  1  1  0  0  0
  8 14  1  0  0  0  0
  9  5  1  0  0  0  0
  9  8  1  1  0  0  0
 10 11  1  0  0  0  0
 10 15  1  6  0  0  0
 12 13  1  6  0  0  0
M  END
$$$$
O=C1OC[C@H]2[C@H]1Cc1cc3OCOc3cc1[C@H]2O
 OpenBabel07182308452D

 20 23  0  0  1  0  0  0  0  0999 V2000
    3.5220   -0.2348    0.0000 O   0  0  0  0  0  0  0  0  0  0  0  0
    5.9393    0.6519    0.0000 O   0  0  0  0  0  0  0  0  0  0  0  0
    7.0808   -0.2671    0.0000 O   0  0  0  0  0  0  0  0  0  0  0  0
    2.8457   -3.3231    0.0000 O   0  0  0  0  0  0  0  0  0  0  0  0
    4.0435   -4.0147    0.0000 O   0  0  0  0  0  0  0  0  0  0  0  0
    4.9509   -0.2348    0.0000 C   0  0  1  0  0  0  0  0  0  0  0  0
    5.6655   -0.6473    0.0000 C   0  0  1  0  0  0  0  0  0  0  0  0
    4.2365   -0.6473    0.0000 C   0  0  1  0  0  0  0  0  0  0  0  0
    5.6655   -1.4723    0.0000 C   0  0  0  0  0  0  0  0  0  0  0  0
    4.2365   -1.4723    0.0000 C   0  0  0  0  0  0  0  0  0  0  0  0
    4.9509   -1.8848    0.0000 C   0  0  0  0  0  0  0  0  0  0  0  0
    5.1235    0.5670    0.0000 C   0  0  0  0  0  0  0  0  0  0  0  0
    6.2735   -0.0969    0.0000 C   0  0  0  0  0  0  0  0  0  0  0  0
    3.4857   -1.8905    0.0000 C   0  0  0  0  0  0  0  0  0  0  0  0
    4.9642   -2.7441    0.0000 C   0  0  0  0  0  0  0  0  0  0  0  0
    3.4791   -2.7499    0.0000 C   0  0  0  0  0  0  0  0  0  0  0  0
    4.2234   -3.1795    0.0000 C   0  0  0  0  0  0  0  0  0  0  0  0
    3.1939   -4.1032    0.0000 C   0  0  0  0  0  0  0  0  0  0  0  0
    4.4175    0.1538    0.0000 H   0  0  0  0  0  0  0  0  0  0  0  0
    6.2687   -0.9150    0.0000 H   0  0  0  0  0  0  0  0  0  0  0  0
  2 12  1  0  0  0  0
  2 13  1  0  0  0  0
  3 13  2  0  0  0  0
  4 16  1  0  0  0  0
  4 18  1  0  0  0  0
  5 17  1  0  0  0  0
  5 18  1  0  0  0  0
  6  7  1  6  0  0  0
  6 12  1  0  0  0  0
  6 19  1  0  0  0  0
  7  9  1  0  0  0  0
  7 13  1  0  0  0  0
  7 20  1  1  0  0  0
  8  1  1  0  0  0  0
  8  6  1  1  0  0  0
  8 10  1  0  0  0  0
  9 11  1  0  0  0  0
 10 11  1  0  0  0  0
 10 14  2  0  0  0  0
 11 15  2  0  0  0  0
 14 16  1  0  0  0  0
 15 17  1  0  0  0  0
 16 17  2  0  0  0  0
M  END
$$$$
O=S1(=O)NCNc2c1cccc2
 OpenBabel07182308452D

 14 15  0  0  0  0  0  0  0  0999 V2000
    5.3809   -0.6133    0.0000 S   0  0  0  0  0  0  0  0  0  0  0  0
    5.7851   -1.3325    0.0000 O   0  0  0  0  0  0  0  0  0  0  0  0
    4.9602   -1.3229    0.0000 O   0  0  0  0  0  0  0  0  0  0  0  0
    5.3809    1.0940    0.0000 N   0  0  0  0  0  0  0  0  0  0  0  0
    6.1285   -0.1893    0.0000 N   0  0  0  0  0  0  0  0  0  0  0  0
    4.6434   -0.1722    0.0000 C   0  0  0  0  0  0  0  0  0  0  0  0
    4.6434    0.6528    0.0000 C   0  0  0  0  0  0  0  0  0  0  0  0
    3.2144   -0.1722    0.0000 C   0  0  0  0  0  0  0  0  0  0  0  0
    3.2144    0.6528    0.0000 C   0  0  0  0  0  0  0  0  0  0  0  0
    3.9289   -0.5847    0.0000 C   0  0  0  0  0  0  0  0  0  0  0  0
    6.1285    0.6700    0.0000 C   0  0  0  0  0  0  0  0  0  0  0  0
    3.9289    1.0653    0.0000 C   0  0  0  0  0  0  0  0  0  0  0  0
    5.3695    2.0784    0.0000 H   0  0  0  0  0  0  0  0  0  0  0  0
    7.0099   -0.7027    0.0000 H   0  0  0  0  0  0  0  0  0  0  0  0
  1  2  2  0  0  0  0
  1  3  2  0  0  0  0
  1  5  1  0  0  0  0
  1  6  1  0  0  0  0
  4  7  1  0  0  0  0
  4 11  1  0  0  0  0
  4 13  1  0  0  0  0
  5 11  1  0  0  0  0
  5 14  1  0  0  0  0
  6  7  2  0  0  0  0
  6 10  1  0  0  0  0
  7 12  1  0  0  0  0
  8  9  1  0  0  0  0
  8 10  2  0  0  0  0
  9 12  2  0  0  0  0
M  END
$$$$
O=C1Cc2ccccc2Nc2c1cccc2
 OpenBabel07182308452D

 16 18  0  0  0  0  0  0  0  0999 V2000
   -2.3176    0.2634    0.0000 C   0  0  0  0  0  0  0  0  0  0  0  0
   -2.1581   -0.5432    0.0000 C   0  0  0  0  0  0  0  0  0  0  0  0
   -1.3811   -0.8067    0.0000 C   0  0  0  0  0  0  0  0  0  0  0  0
   -1.7040    0.8039    0.0000 C   0  0  0  0  0  0  0  0  0  0  0  0
   -0.7667   -0.2652    0.0000 C   0  0  0  0  0  0  0  0  0  0  0  0
   -0.9271    0.5441    0.0000 C   0  0  0  0  0  0  0  0  0  0  0  0
   -0.3929    1.1802    0.0000 C   0  0  0  0  0  0  0  0  0  0  0  0
   -0.0279   -0.6450    0.0000 N   0  0  0  0  0  0  0  0  0  0  0  0
    0.4344    1.1626    0.0000 C   0  0  0  0  0  0  0  0  0  0  0  0
    0.9316    0.5009    0.0000 C   0  0  0  0  0  0  0  0  0  0  0  0
    0.7291   -0.3017    0.0000 C   0  0  0  0  0  0  0  0  0  0  0  0
    1.3225   -0.8763    0.0000 C   0  0  0  0  0  0  0  0  0  0  0  0
    2.1184   -0.6493    0.0000 C   0  0  0  0  0  0  0  0  0  0  0  0
    2.3176    0.1573    0.0000 C   0  0  0  0  0  0  0  0  0  0  0  0
    1.7227    0.7282    0.0000 C   0  0  0  0  0  0  0  0  0  0  0  0
    0.8085    1.8922    0.0000 O   0  0  0  0  0  0  0  0  0  0  0  0
  1  2  2  0  0  0  0
  2  3  1  0  0  0  0
  3  5  2  0  0  0  0
  4  1  1  0  0  0  0
  5  6  1  0  0  0  0
  5  8  1  0  0  0  0
  6  7  1  0  0  0  0
  6  4  2  0  0  0  0
  7  9  1  0  0  0  0
  8 11  1  0  0  0  0
  9 10  1  0  0  0  0
  9 16  2  0  0  0  0
 10 11  2  0  0  0  0
 11 12  1  0  0  0  0
 12 13  2  0  0  0  0
 13 14  1  0  0  0  0
 14 15  2  0  0  0  0
 15 10  1  0  0  0  0
M  END
$$$$
O/N=C/1\[C@H](C)C[C@@](C)(O)[C@H](O)[C@@H](C)[C@H](O)[C@H](C(=O)OC[C@@]([C@@H]([C@H]1C)O)(C)O)C
 OpenBabel07182308452D

 31 31  0  0  1  0  0  0  0  0999 V2000
    1.4289   -0.4125    0.0000 C   0  0  1  0  0  0  0  0  0  0  0  0
    0.7145   -0.8250    0.0000 C   0  0  2  0  0  0  0  0  0  0  0  0
    0.7145    0.8250    0.0000 C   0  0  0  0  0  0  0  0  0  0  0  0
    0.7145   -1.6500    0.0000 C   0  0  1  0  0  0  0  0  0  0  0  0
    0.7145    1.6500    0.0000 C   0  0  2  0  0  0  0  0  0  0  0  0
    0.0000   -2.0625    0.0000 C   0  0  2  0  0  0  0  0  0  0  0  0
    0.0000    2.0625    0.0000 C   0  0  0  0  0  0  0  0  0  0  0  0
   -0.7145   -1.6500    0.0000 C   0  0  0  0  0  0  0  0  0  0  0  0
   -0.7145    1.6500    0.0000 C   0  0  1  0  0  0  0  0  0  0  0  0
   -0.7145   -0.8250    0.0000 O   0  0  0  0  0  0  0  0  0  0  0  0
   -0.7145    0.8250    0.0000 C   0  0  1  0  0  0  0  0  0  0  0  0
   -1.4289   -0.4125    0.0000 C   0  0  0  0  0  0  0  0  0  0  0  0
    2.1434   -0.8250    0.0000 O   0  0  0  0  0  0  0  0  0  0  0  0
    0.0000   -0.4125    0.0000 C   0  0  0  0  0  0  0  0  0  0  0  0
    1.4289   -2.0625    0.0000 O   0  0  0  0  0  0  0  0  0  0  0  0
    1.4289    2.0625    0.0000 C   0  0  0  0  0  0  0  0  0  0  0  0
    0.0000   -2.8875    0.0000 C   0  0  0  0  0  0  0  0  0  0  0  0
    0.0000    2.8875    0.0000 N   0  0  0  0  0  0  0  0  0  0  0  0
   -1.4290   -2.0625    0.0000 O   0  0  0  0  0  0  0  0  0  0  0  0
   -1.4290    2.0625    0.0000 C   0  0  0  0  0  0  0  0  0  0  0  0
    0.0000    0.4125    0.0000 O   0  0  0  0  0  0  0  0  0  0  0  0
    0.7144    3.3000    0.0000 O   0  0  0  0  0  0  0  0  0  0  0  0
   -1.4289    0.4125    0.0000 C   0  0  1  0  0  0  0  0  0  0  0  0
    1.4289    0.4125    0.0000 C   0  0  1  0  0  0  0  0  0  0  0  0
   -1.4289    1.2375    0.0000 O   0  0  0  0  0  0  0  0  0  0  0  0
    1.4289    1.2375    0.0000 O   0  0  0  0  0  0  0  0  0  0  0  0
   -2.1434    0.8249    0.0000 C   0  0  0  0  0  0  0  0  0  0  0  0
    2.1434    0.8250    0.0000 C   0  0  0  0  0  0  0  0  0  0  0  0
    0.0000   -0.5575    0.0000 H   0  0  0  0  0  0  0  0  0  0  0  0
   -0.5889    1.7225    0.0000 H   0  0  0  0  0  0  0  0  0  0  0  0
    2.2689    1.7225    0.0000 H   0  0  0  0  0  0  0  0  0  0  0  0
  1 13  1  0  0  0  0
  1 24  1  6  0  0  0
  2  1  1  0  0  0  0
  2 14  1  6  0  0  0
  2  4  1  0  0  0  0
  3  5  1  0  0  0  0
  4 15  1  6  0  0  0
  4  6  1  0  0  0  0
  5 16  1  6  0  0  0
  5  7  1  0  0  0  0
  6 17  1  1  0  0  0
  6  8  1  0  0  0  0
  7 18  2  0  0  0  0
  8 19  2  0  0  0  0
  8 10  1  0  0  0  0
  9  7  1  0  0  0  0
  9 20  1  1  0  0  0
 11  9  1  0  0  0  0
 11 21  1  0  0  0  0
 11 23  1  1  0  0  0
 12 10  1  0  0  0  0
 18 22  1  0  0  0  0
 21 29  1  0  0  0  0
 23 12  1  0  0  0  0
 23 27  1  6  0  0  0
 23 25  1  0  0  0  0
 24 28  1  6  0  0  0
 24  3  1  0  0  0  0
 24 26  1  0  0  0  0
 25 30  1  0  0  0  0
 26 31  1  0  0  0  0
M  END
$$$$
Cc1ccc2c(n1)[nH]ccc2=O
 OpenBabel07182308452D

 12 13  0  0  0  0  0  0  0  0999 V2000
    4.2364    1.8563    0.0000 O   0  0  0  0  0  0  0  0  0  0  0  0
    4.2364   -0.6188    0.0000 N   0  0  0  0  0  0  0  0  0  0  0  0
    5.6885   -0.6474    0.0000 N   0  0  0  0  0  0  0  0  0  0  0  0
    4.9509   -0.2063    0.0000 C   0  0  0  0  0  0  0  0  0  0  0  0
    4.9509    0.6188    0.0000 C   0  0  0  0  0  0  0  0  0  0  0  0
    3.5220   -0.2063    0.0000 C   0  0  0  0  0  0  0  0  0  0  0  0
    3.5220    0.6188    0.0000 C   0  0  0  0  0  0  0  0  0  0  0  0
    4.2364    1.0313    0.0000 C   0  0  0  0  0  0  0  0  0  0  0  0
    5.6885    1.0599    0.0000 C   0  0  0  0  0  0  0  0  0  0  0  0
    6.4359   -0.2234    0.0000 C   0  0  0  0  0  0  0  0  0  0  0  0
    6.4359    0.6359    0.0000 C   0  0  0  0  0  0  0  0  0  0  0  0
    7.1488   -0.6386    0.0000 C   0  0  0  0  0  0  0  0  0  0  0  0
  1  8  2  0  0  0  0
  2  4  1  0  0  0  0
  2  6  1  0  0  0  0
  3  4  1  0  0  0  0
  3 10  2  0  0  0  0
  4  5  2  0  0  0  0
  5  8  1  0  0  0  0
  5  9  1  0  0  0  0
  6  7  2  0  0  0  0
  7  8  1  0  0  0  0
  9 11  2  0  0  0  0
 10 11  1  0  0  0  0
 10 12  1  0  0  0  0
M  END
$$$$
CNN
 OpenBabel07182308452D

  6  5  0  0  0  0  0  0  0  0999 V2000
    3.0790    1.3942    0.0000 N   0  0  0  0  0  0  0  0  0  0  0  0
    3.7934    1.8067    0.0000 N   0  0  0  0  0  0  0  0  0  0  0  0
    3.0790    0.5692    0.0000 C   0  0  0  0  0  0  0  0  0  0  0  0
    2.1956    1.9042    0.0000 H   0  0  0  0  0  0  0  0  0  0  0  0
    4.6768    1.2967    0.0000 H   0  0  0  0  0  0  0  0  0  0  0  0
    3.7934    2.8267    0.0000 H   0  0  0  0  0  0  0  0  0  0  0  0
  1  2  1  0  0  0  0
  1  3  1  0  0  0  0
  1  4  1  0  0  0  0
  2  5  1  0  0  0  0
  2  6  1  0  0  0  0
M  END
$$$$
C[NH2+]C(C)C
 OpenBabel07182308452D

  5  4  0  0  0  0  0  0  0  0999 V2000
    5.2784    1.8705    0.0000 N   0  3  0  0  0  0  0  0  0  0  0  0
    6.1034    1.8705    0.0000 C   0  0  0  0  0  0  0  0  0  0  0  0
    4.4534    1.8705    0.0000 C   0  0  0  0  0  0  0  0  0  0  0  0
    6.5159    1.1561    0.0000 C   0  0  0  0  0  0  0  0  0  0  0  0
    6.5159    2.5851    0.0000 C   0  0  0  0  0  0  0  0  0  0  0  0
  1  2  1  0  0  0  0
  1  3  1  0  0  0  0
  2  4  1  0  0  0  0
  2  5  1  0  0  0  0
M  CHG  1   1   1
M  END
$$$$
c1ccc2c(c1)Oc1c(C2)cccc1
 OpenBabel07182308452D

 14 16  0  0  0  0  0  0  0  0999 V2000
    3.8495   -3.0795    0.0000 O   0  0  0  0  0  0  0  0  0  0  0  0
    3.8495   -1.4295    0.0000 C   0  0  0  0  0  0  0  0  0  0  0  0
    4.5640   -1.8420    0.0000 C   0  0  0  0  0  0  0  0  0  0  0  0
    3.1350   -1.8420    0.0000 C   0  0  0  0  0  0  0  0  0  0  0  0
    4.5640   -2.6670    0.0000 C   0  0  0  0  0  0  0  0  0  0  0  0
    3.1350   -2.6670    0.0000 C   0  0  0  0  0  0  0  0  0  0  0  0
    5.3015   -1.4008    0.0000 C   0  0  0  0  0  0  0  0  0  0  0  0
    2.3975   -1.4008    0.0000 C   0  0  0  0  0  0  0  0  0  0  0  0
    5.3015   -3.1080    0.0000 C   0  0  0  0  0  0  0  0  0  0  0  0
    2.3975   -3.1080    0.0000 C   0  0  0  0  0  0  0  0  0  0  0  0
    6.0490   -1.8248    0.0000 C   0  0  0  0  0  0  0  0  0  0  0  0
    1.6500   -1.8248    0.0000 C   0  0  0  0  0  0  0  0  0  0  0  0
    6.0490   -2.6841    0.0000 C   0  0  0  0  0  0  0  0  0  0  0  0
    1.6500   -2.6841    0.0000 C   0  0  0  0  0  0  0  0  0  0  0  0
  1  5  1  0  0  0  0
  1  6  1  0  0  0  0
  2  3  1  0  0  0  0
  2  4  1  0  0  0  0
  3  5  1  0  0  0  0
  3  7  2  0  0  0  0
  4  6  1  0  0  0  0
  4  8  2  0  0  0  0
  5  9  2  0  0  0  0
  6 10  2  0  0  0  0
  7 11  1  0  0  0  0
  8 12  1  0  0  0  0
  9 13  1  0  0  0  0
 10 14  1  0  0  0  0
 11 13  2  0  0  0  0
 12 14  2  0  0  0  0
M  END
$$$$
Oc1ccc2c(c1)CC[C@@H]1[C@@H]2CC[C@]2([C@H]1CC[C@@H]2O)C
 OpenBabel07182308452D

 25 28  0  0  1  0  0  0  0  0999 V2000
    7.5775    1.7429    0.0000 O   0  0  0  0  0  0  0  0  0  0  0  0
    2.0917   -1.8105    0.0000 O   0  0  0  0  0  0  0  0  0  0  0  0
    6.5406    0.7074    0.0000 C   0  0  1  0  0  0  0  0  0  0  0  0
    6.5406   -0.1176    0.0000 C   0  0  2  0  0  0  0  0  0  0  0  0
    5.8262   -0.5300    0.0000 C   0  0  1  0  0  0  0  0  0  0  0  0
    5.1119   -0.1176    0.0000 C   0  0  2  0  0  0  0  0  0  0  0  0
    7.3211    0.9588    0.0000 C   0  0  2  0  0  0  0  0  0  0  0  0
    5.8262    1.1199    0.0000 C   0  0  0  0  0  0  0  0  0  0  0  0
    7.3211   -0.3689    0.0000 C   0  0  0  0  0  0  0  0  0  0  0  0
    5.1119    0.7074    0.0000 C   0  0  0  0  0  0  0  0  0  0  0  0
    7.8026    0.2949    0.0000 C   0  0  0  0  0  0  0  0  0  0  0  0
    5.8395   -1.3891    0.0000 C   0  0  0  0  0  0  0  0  0  0  0  0
    6.5406    1.5323    0.0000 C   0  0  0  0  0  0  0  0  0  0  0  0
    4.3612   -0.5356    0.0000 C   0  0  0  0  0  0  0  0  0  0  0  0
    5.0987   -1.8245    0.0000 C   0  0  0  0  0  0  0  0  0  0  0  0
    4.3545   -1.3948    0.0000 C   0  0  0  0  0  0  0  0  0  0  0  0
    3.5966   -0.0703    0.0000 C   0  0  0  0  0  0  0  0  0  0  0  0
    3.5829   -1.8483    0.0000 C   0  0  0  0  0  0  0  0  0  0  0  0
    2.8147   -0.5058    0.0000 C   0  0  0  0  0  0  0  0  0  0  0  0
    2.8078   -1.4008    0.0000 C   0  0  0  0  0  0  0  0  0  0  0  0
    6.6105   -0.7738    0.0000 H   0  0  0  0  0  0  0  0  0  0  0  0
    6.4003   -0.8555    0.0000 H   0  0  0  0  0  0  0  0  0  0  0  0
    5.6833    0.2124    0.0000 H   0  0  0  0  0  0  0  0  0  0  0  0
    8.5267    1.9428    0.0000 H   0  0  0  0  0  0  0  0  0  0  0  0
    1.2821   -1.3388    0.0000 H   0  0  0  0  0  0  0  0  0  0  0  0
  1 24  1  0  0  0  0
  2 20  1  0  0  0  0
  2 25  1  0  0  0  0
  3  4  1  1  0  0  0
  3  8  1  0  0  0  0
  3 13  1  0  0  0  0
  4  5  1  1  0  0  0
  4  9  1  0  0  0  0
  4 21  1  0  0  0  0
  5  6  1  1  0  0  0
  5 12  1  0  0  0  0
  5 22  1  0  0  0  0
  6 10  1  0  0  0  0
  6 14  1  0  0  0  0
  6 23  1  6  0  0  0
  7  1  1  0  0  0  0
  7  3  1  1  0  0  0
  7 11  1  0  0  0  0
  8 10  1  0  0  0  0
  9 11  1  0  0  0  0
 12 15  1  0  0  0  0
 14 16  2  0  0  0  0
 14 17  1  0  0  0  0
 15 16  1  0  0  0  0
 16 18  1  0  0  0  0
 17 19  2  0  0  0  0
 18 20  2  0  0  0  0
 19 20  1  0  0  0  0
M  END
$$$$
Cc1c(C)cccc1N
 OpenBabel07182308452D

 10 10  0  0  0  0  0  0  0  0999 V2000
    3.0791   -0.1279    0.0000 N   0  0  0  0  0  0  0  0  0  0  0  0
    2.3645   -1.3654    0.0000 C   0  0  0  0  0  0  0  0  0  0  0  0
    3.0791   -0.9529    0.0000 C   0  0  0  0  0  0  0  0  0  0  0  0
    2.3645   -2.1904    0.0000 C   0  0  0  0  0  0  0  0  0  0  0  0
    3.7935   -1.3654    0.0000 C   0  0  0  0  0  0  0  0  0  0  0  0
    3.0791   -2.6029    0.0000 C   0  0  0  0  0  0  0  0  0  0  0  0
    1.6500   -0.9529    0.0000 C   0  0  0  0  0  0  0  0  0  0  0  0
    3.7935   -2.1904    0.0000 C   0  0  0  0  0  0  0  0  0  0  0  0
    1.6500   -2.6029    0.0000 C   0  0  0  0  0  0  0  0  0  0  0  0
    2.2265    0.3643    0.0000 H   0  0  0  0  0  0  0  0  0  0  0  0
  1  3  1  0  0  0  0
  1 10  1  0  0  0  0
  2  3  1  0  0  0  0
  2  4  2  0  0  0  0
  2  7  1  0  0  0  0
  3  5  2  0  0  0  0
  4  6  1  0  0  0  0
  4  9  1  0  0  0  0
  5  8  1  0  0  0  0
  6  8  2  0  0  0  0
M  END
$$$$
C1CC[C@@H]2[C@H](C1)NCC2
 OpenBabel07182308452D

 11 12  0  0  0  0  0  0  0  0999 V2000
    1.3043   -0.6005    0.0000 N   0  0  0  0  0  0  0  0  0  0  0  0
    2.0911   -0.9317    0.0000 C   0  0  2  0  0  0  0  0  0  0  0  0
    1.4285    0.2276    0.0000 C   0  0  0  0  0  0  0  0  0  0  0  0
    2.6293   -0.3105    0.0000 C   0  0  2  0  0  0  0  0  0  0  0  0
    2.3395   -1.7184    0.0000 C   0  0  0  0  0  0  0  0  0  0  0  0
    2.2153    0.4347    0.0000 C   0  0  0  0  0  0  0  0  0  0  0  0
    3.4575   -0.4762    0.0000 C   0  0  0  0  0  0  0  0  0  0  0  0
    3.1262   -1.8840    0.0000 C   0  0  0  0  0  0  0  0  0  0  0  0
    3.7059   -1.2629    0.0000 C   0  0  0  0  0  0  0  0  0  0  0  0
    1.5113   -1.5114    0.0000 H   0  0  0  0  0  0  0  0  0  0  0  0
    3.2091    0.3105    0.0000 H   0  0  0  0  0  0  0  0  0  0  0  0
  1  2  1  0  0  0  0
  1  3  1  0  0  0  0
  2  4  1  1  0  0  0
  2  5  1  0  0  0  0
  2 10  1  0  0  0  0
  3  6  1  0  0  0  0
  4  7  1  0  0  0  0
  4  6  1  0  0  0  0
  4 11  1  1  0  0  0
  5  8  1  0  0  0  0
  7  9  1  0  0  0  0
  8  9  1  0  0  0  0
M  END
$$$$
CC#CI
 OpenBabel07182308452D

  4  3  0  0  0  0  0  0  0  0999 V2000
    3.7934    3.0938    0.0000 I   0  0  0  0  0  0  0  0  0  0  0  0
    3.7934    0.6188    0.0000 C   0  0  0  0  0  0  0  0  0  0  0  0
    3.7934    1.4438    0.0000 C   0  0  0  0  0  0  0  0  0  0  0  0
    3.7934    2.2688    0.0000 C   0  0  0  0  0  0  0  0  0  0  0  0
  1  4  1  0  0  0  0
  2  3  1  0  0  0  0
  3  4  3  0  0  0  0
M  END
$$$$
O=C1NCNC(=O)C1
 OpenBabel07182308452D

 10 10  0  0  0  0  0  0  0  0999 V2000
    1.6500   -0.2467    0.0000 O   0  0  0  0  0  0  0  0  0  0  0  0
    4.5080   -0.2467    0.0000 O   0  0  0  0  0  0  0  0  0  0  0  0
    2.3645   -1.4842    0.0000 N   0  0  0  0  0  0  0  0  0  0  0  0
    3.7935   -1.4842    0.0000 N   0  0  0  0  0  0  0  0  0  0  0  0
    3.0791   -0.2467    0.0000 C   0  0  0  0  0  0  0  0  0  0  0  0
    2.3645   -0.6592    0.0000 C   0  0  0  0  0  0  0  0  0  0  0  0
    3.7935   -0.6592    0.0000 C   0  0  0  0  0  0  0  0  0  0  0  0
    3.0791   -1.8967    0.0000 C   0  0  0  0  0  0  0  0  0  0  0  0
    1.5119   -1.9765    0.0000 H   0  0  0  0  0  0  0  0  0  0  0  0
    4.6461   -1.9764    0.0000 H   0  0  0  0  0  0  0  0  0  0  0  0
  1  6  2  0  0  0  0
  2  7  2  0  0  0  0
  3  6  1  0  0  0  0
  3  8  1  0  0  0  0
  3  9  1  0  0  0  0
  4  7  1  0  0  0  0
  4  8  1  0  0  0  0
  4 10  1  0  0  0  0
  5  6  1  0  0  0  0
  5  7  1  0  0  0  0
M  END
$$$$
N=N
 OpenBabel07182308452D

  2  1  0  0  0  0  0  0  0  0999 V2000
   15.5959  -10.5076    0.0000 N   0  0  0  0  0  0  0  0  0  0  0  0
   14.7705  -10.0730    0.0000 N   0  0  0  0  0  0  0  0  0  0  0  0
  1  2  2  0  0  0  0
M  END
$$$$
Cn1c(O)nc2c1cccc2
 OpenBabel07182308452D

 11 12  0  0  0  0  0  0  0  0999 V2000
    2.2710    0.8185    0.0000 C   0  0  0  0  0  0  0  0  0  0  0  0
    2.0091    1.6008    0.0000 N   0  0  0  0  0  0  0  0  0  0  0  0
    3.0947    0.8151    0.0000 C   0  0  0  0  0  0  0  0  0  0  0  0
    1.8575    0.1051    0.0000 C   0  0  0  0  0  0  0  0  0  0  0  0
    2.6811    2.0936    0.0000 C   0  0  0  0  0  0  0  0  0  0  0  0
    1.2854    2.0075    0.0000 C   0  0  0  0  0  0  0  0  0  0  0  0
    3.3531    1.6008    0.0000 N   0  0  0  0  0  0  0  0  0  0  0  0
    3.5047    0.1017    0.0000 C   0  0  0  0  0  0  0  0  0  0  0  0
    2.2676   -0.6082    0.0000 C   0  0  0  0  0  0  0  0  0  0  0  0
    2.6811    2.9207    0.0000 O   0  0  0  0  0  0  0  0  0  0  0  0
    3.0912   -0.6116    0.0000 C   0  0  0  0  0  0  0  0  0  0  0  0
  1  2  1  0  0  0  0
  1  3  2  0  0  0  0
  1  4  1  0  0  0  0
  2  5  1  0  0  0  0
  2  6  1  0  0  0  0
  3  7  1  0  0  0  0
  3  8  1  0  0  0  0
  4  9  2  0  0  0  0
  5 10  1  0  0  0  0
  5  7  2  0  0  0  0
  8 11  2  0  0  0  0
  9 11  1  0  0  0  0
M  END
$$$$
CC1=NCCN1
 OpenBabel07182308452D

  7  7  0  0  0  0  0  0  0  0999 V2000
    3.1651    1.6828    0.0000 N   0  0  0  0  0  0  0  0  0  0  0  0
    3.8324    0.5269    0.0000 N   0  0  0  0  0  0  0  0  0  0  0  0
    3.0789    0.8623    0.0000 C   0  0  0  0  0  0  0  0  0  0  0  0
    3.9719    1.8543    0.0000 C   0  0  0  0  0  0  0  0  0  0  0  0
    2.3643    0.4499    0.0000 C   0  0  0  0  0  0  0  0  0  0  0  0
    4.3844    1.1398    0.0000 C   0  0  0  0  0  0  0  0  0  0  0  0
    2.4335    2.3415    0.0000 H   0  0  0  0  0  0  0  0  0  0  0  0
  1  3  1  0  0  0  0
  1  4  1  0  0  0  0
  1  7  1  0  0  0  0
  2  3  2  0  0  0  0
  2  6  1  0  0  0  0
  3  5  1  0  0  0  0
  4  6  1  0  0  0  0
M  END
$$$$
O[C@H]1OC[C@](C[C@H]1O)(C)O
 OpenBabel07182308452D

 13 13  0  0  0  0  0  0  0  0999 V2000
   -2.4557   -2.7764    0.0000 C   0  0  1  0  0  0  0  0  0  0  0  0
   -2.0477   -2.0622    0.0000 C   0  0  1  0  0  0  0  0  0  0  0  0
   -3.2817   -2.7764    0.0000 C   0  0  0  0  0  0  0  0  0  0  0  0
   -1.3335   -1.6396    0.0000 O   0  0  0  0  0  0  0  0  0  0  0  0
   -3.7043   -2.0622    0.0000 C   0  0  2  0  0  0  0  0  0  0  0  0
   -2.4557   -1.3481    0.0000 O   0  0  0  0  0  0  0  0  0  0  0  0
   -3.2817   -1.3481    0.0000 C   0  0  0  0  0  0  0  0  0  0  0  0
   -2.0429   -3.4904    0.0000 O   0  0  0  0  0  0  0  0  0  0  0  0
   -4.4186   -1.6492    0.0000 O   0  0  0  0  0  0  0  0  0  0  0  0
   -4.4186   -2.4703    0.0000 C   0  0  0  0  0  0  0  0  0  0  0  0
   -1.3335   -2.4703    0.0000 H   0  0  0  0  0  0  0  0  0  0  0  0
   -2.5274   -4.3307    0.0000 H   0  0  0  0  0  0  0  0  0  0  0  0
   -4.4180   -0.6792    0.0000 H   0  0  0  0  0  0  0  0  0  0  0  0
  1  2  1  6  0  0  0
  1  8  1  0  0  0  0
  2  4  1  0  0  0  0
  2 11  1  1  0  0  0
  3  1  1  0  0  0  0
  3  5  1  0  0  0  0
  5  7  1  0  0  0  0
  5  9  1  0  0  0  0
  5 10  1  6  0  0  0
  6  2  1  0  0  0  0
  7  6  1  0  0  0  0
  8 12  1  0  0  0  0
  9 13  1  0  0  0  0
M  END
$$$$
N[C@@H]1CCCOC1
 OpenBabel07182308452D

 10 10  0  0  0  0  0  0  0  0999 V2000
    1.8484   -3.4760    0.0000 C   0  0  0  0  0  0  0  0  0  0  0  0
    2.6791   -3.4760    0.0000 O   0  0  0  0  0  0  0  0  0  0  0  0
    1.4403   -4.1900    0.0000 C   0  0  1  0  0  0  0  0  0  0  0  0
    1.8484   -4.9042    0.0000 C   0  0  0  0  0  0  0  0  0  0  0  0
    3.0872   -4.1900    0.0000 C   0  0  0  0  0  0  0  0  0  0  0  0
    0.6095   -4.1900    0.0000 N   0  0  0  0  0  0  0  0  0  0  0  0
    2.6791   -4.9042    0.0000 C   0  0  0  0  0  0  0  0  0  0  0  0
    3.8013   -4.6078    0.0000 H   0  0  0  0  0  0  0  0  0  0  0  0
    0.0995   -3.3067    0.0000 H   0  0  0  0  0  0  0  0  0  0  0  0
    0.0995   -5.0733    0.0000 H   0  0  0  0  0  0  0  0  0  0  0  0
  2  1  1  0  0  0  0
  3  1  1  0  0  0  0
  3  6  1  1  0  0  0
  4  3  1  0  0  0  0
  5  2  1  0  0  0  0
  5  8  1  0  0  0  0
  6  9  1  0  0  0  0
  6 10  1  0  0  0  0
  7  4  1  0  0  0  0
  7  5  1  0  0  0  0
M  END
$$$$
N[C@H]1C[C@@H](N)C[C@H](C1)O
 OpenBabel07182308452D

 15 15  0  0  0  0  0  0  0  0999 V2000
   -5.0452    2.7617    0.0000 C   0  0  0  0  0  0  0  0  0  0  0  0
   -6.2840    3.4760    0.0000 C   0  0  0  0  0  0  0  0  0  0  0  0
   -5.8760    2.7617    0.0000 C   0  0  1  0  0  0  0  0  0  0  0  0
   -4.6371    3.4760    0.0000 C   0  0  2  0  0  0  0  0  0  0  0  0
   -5.8760    4.1900    0.0000 C   0  0  1  0  0  0  0  0  0  0  0  0
   -5.0452    4.1900    0.0000 C   0  0  0  0  0  0  0  0  0  0  0  0
   -6.2840    2.0477    0.0000 O   0  0  0  0  0  0  0  0  0  0  0  0
   -6.2840    4.9042    0.0000 N   0  0  0  0  0  0  0  0  0  0  0  0
   -3.8064    3.4662    0.0000 N   0  0  0  0  0  0  0  0  0  0  0  0
   -5.0500    1.9310    0.0000 H   0  0  0  0  0  0  0  0  0  0  0  0
   -7.2540    2.0434    0.0000 H   0  0  0  0  0  0  0  0  0  0  0  0
   -5.7700    5.7852    0.0000 H   0  0  0  0  0  0  0  0  0  0  0  0
   -7.3040    4.9089    0.0000 H   0  0  0  0  0  0  0  0  0  0  0  0
   -3.3069    2.5769    0.0000 H   0  0  0  0  0  0  0  0  0  0  0  0
   -3.2860    4.3435    0.0000 H   0  0  0  0  0  0  0  0  0  0  0  0
  1 10  1  0  0  0  0
  2  5  1  0  0  0  0
  2  3  1  0  0  0  0
  3  1  1  0  0  0  0
  3  7  1  6  0  0  0
  4  1  1  0  0  0  0
  4  9  1  6  0  0  0
  5  6  1  0  0  0  0
  5  8  1  6  0  0  0
  6  4  1  0  0  0  0
  7 11  1  0  0  0  0
  8 12  1  0  0  0  0
  8 13  1  0  0  0  0
  9 14  1  0  0  0  0
  9 15  1  0  0  0  0
M  END
$$$$
N[C@@H]1CCCO[C@@H]1O
 OpenBabel07182308452D

 11 11  0  0  0  0  0  0  0  0999 V2000
   -3.9230    1.6299    0.0000 C   0  0  1  0  0  0  0  0  0  0  0  0
   -4.3310    2.3440    0.0000 O   0  0  0  0  0  0  0  0  0  0  0  0
   -3.0970    1.6299    0.0000 O   0  0  0  0  0  0  0  0  0  0  0  0
   -2.6842    0.9158    0.0000 C   0  0  0  0  0  0  0  0  0  0  0  0
   -4.3358    0.9158    0.0000 C   0  0  1  0  0  0  0  0  0  0  0  0
   -3.0970    0.2016    0.0000 C   0  0  0  0  0  0  0  0  0  0  0  0
   -3.9230    0.2016    0.0000 C   0  0  0  0  0  0  0  0  0  0  0  0
   -5.1617    0.9158    0.0000 N   0  0  0  0  0  0  0  0  0  0  0  0
   -1.9748    0.5027    0.0000 H   0  0  0  0  0  0  0  0  0  0  0  0
   -5.6717    1.7991    0.0000 H   0  0  0  0  0  0  0  0  0  0  0  0
   -5.6717    0.0325    0.0000 H   0  0  0  0  0  0  0  0  0  0  0  0
  1  2  1  1  0  0  0
  3  1  1  0  0  0  0
  4  9  1  0  0  0  0
  4  3  1  0  0  0  0
  5  8  1  1  0  0  0
  5  1  1  0  0  0  0
  6  4  1  0  0  0  0
  7  6  1  0  0  0  0
  7  5  1  0  0  0  0
  8 10  1  0  0  0  0
  8 11  1  0  0  0  0
M  END
$$$$
CC1(C)CCSc2c1cc(C#Cc1ccccn1)cc2
 OpenBabel07182308452D

 20 22  0  0  0  0  0  0  0  0999 V2000
    2.3645    2.2713    0.0000 S   0  0  0  0  0  0  0  0  0  0  0  0
    6.6995   -1.0541    0.0000 N   0  0  0  0  0  0  0  0  0  0  0  0
    2.3645    0.6213    0.0000 C   0  0  0  0  0  0  0  0  0  0  0  0
    1.6500    1.0338    0.0000 C   0  0  0  0  0  0  0  0  0  0  0  0
    3.0790    1.0338    0.0000 C   0  0  0  0  0  0  0  0  0  0  0  0
    1.9520   -0.0931    0.0000 C   0  0  0  0  0  0  0  0  0  0  0  0
    2.7770   -0.0931    0.0000 C   0  0  0  0  0  0  0  0  0  0  0  0
    1.6500    1.8588    0.0000 C   0  0  0  0  0  0  0  0  0  0  0  0
    3.0790    1.8588    0.0000 C   0  0  0  0  0  0  0  0  0  0  0  0
    3.8165    0.5927    0.0000 C   0  0  0  0  0  0  0  0  0  0  0  0
    3.8165    2.2999    0.0000 C   0  0  0  0  0  0  0  0  0  0  0  0
    4.5640    1.0167    0.0000 C   0  0  0  0  0  0  0  0  0  0  0  0
    4.5640    1.8760    0.0000 C   0  0  0  0  0  0  0  0  0  0  0  0
    5.2769    0.6013    0.0000 C   0  0  0  0  0  0  0  0  0  0  0  0
    5.9897    0.1861    0.0000 C   0  0  0  0  0  0  0  0  0  0  0  0
    6.7026   -0.2291    0.0000 C   0  0  0  0  0  0  0  0  0  0  0  0
    7.4187    0.1806    0.0000 C   0  0  0  0  0  0  0  0  0  0  0  0
    8.1284   -1.0596    0.0000 C   0  0  0  0  0  0  0  0  0  0  0  0
    8.1316   -0.2346    0.0000 C   0  0  0  0  0  0  0  0  0  0  0  0
    7.4124   -1.4694    0.0000 C   0  0  0  0  0  0  0  0  0  0  0  0
  1  8  1  0  0  0  0
  1  9  1  0  0  0  0
  2 16  2  0  0  0  0
  2 20  1  0  0  0  0
  3  4  1  0  0  0  0
  3  5  1  0  0  0  0
  3  6  1  0  0  0  0
  3  7  1  0  0  0  0
  4  8  1  0  0  0  0
  5  9  2  0  0  0  0
  5 10  1  0  0  0  0
  9 11  1  0  0  0  0
 10 12  2  0  0  0  0
 11 13  2  0  0  0  0
 12 13  1  0  0  0  0
 12 14  1  0  0  0  0
 14 15  3  0  0  0  0
 15 16  1  0  0  0  0
 16 17  1  0  0  0  0
 17 19  2  0  0  0  0
 18 19  1  0  0  0  0
 18 20  2  0  0  0  0
M  END
$$$$
Oc1c(O)cc2c(c1Cl)CCNCC2
 OpenBabel07182308452D

 17 18  0  0  1  0  0  0  0  0999 V2000
    1.6500    0.3114    0.0000 Cl  0  0  0  0  0  0  0  0  0  0  0  0
    3.2859   -2.1079    0.0000 O   0  0  0  0  0  0  0  0  0  0  0  0
    1.7633   -1.3747    0.0000 O   0  0  0  0  0  0  0  0  0  0  0  0
    4.2624    1.8673    0.0000 N   0  0  0  0  0  0  0  0  0  0  0  0
    4.5932    0.4179    0.0000 C   0  0  0  0  0  0  0  0  0  0  0  0
    3.8499    0.0600    0.0000 C   0  0  0  0  0  0  0  0  0  0  0  0
    4.7768    1.2223    0.0000 C   0  0  0  0  0  0  0  0  0  0  0  0
    3.1066    0.4179    0.0000 C   0  0  0  0  0  0  0  0  0  0  0  0
    2.9230    1.2223    0.0000 C   0  0  0  0  0  0  0  0  0  0  0  0
    3.4373    1.8673    0.0000 C   0  0  0  0  0  0  0  0  0  0  0  0
    3.9273   -0.7959    0.0000 C   0  0  0  0  0  0  0  0  0  0  0  0
    2.3892   -0.0552    0.0000 C   0  0  0  0  0  0  0  0  0  0  0  0
    3.2210   -1.2855    0.0000 C   0  0  0  0  0  0  0  0  0  0  0  0
    2.4467   -0.9126    0.0000 C   0  0  0  0  0  0  0  0  0  0  0  0
    2.5138   -2.6388    0.0000 H   0  0  0  0  0  0  0  0  0  0  0  0
    0.9207   -0.9649    0.0000 H   0  0  0  0  0  0  0  0  0  0  0  0
    4.7049    2.7863    0.0000 H   0  0  0  0  0  0  0  0  0  0  0  0
  1 12  1  0  0  0  0
  2 13  1  0  0  0  0
  2 15  1  0  0  0  0
  3 14  1  0  0  0  0
  3 16  1  0  0  0  0
  4  7  1  0  0  0  0
  4 10  1  0  0  0  0
  4 17  1  0  0  0  0
  5  6  1  0  0  0  0
  5  7  1  0  0  0  0
  6  8  1  0  0  0  0
  6 11  2  0  0  0  0
  8  9  1  0  0  0  0
  8 12  2  0  0  0  0
  9 10  1  0  0  0  0
 11 13  1  0  0  0  0
 12 14  1  0  0  0  0
 13 14  2  0  0  0  0
M  END
$$$$
CN1CCC(CC1)(C)N
 OpenBabel07182308452D

  9  9  0  0  0  0  0  0  0  0999 V2000
   -0.6600    0.4331    0.0000 C   0  0  0  0  0  0  0  0  0  0  0  0
   -1.3613    0.0206    0.0000 C   0  0  0  0  0  0  0  0  0  0  0  0
   -1.3613   -0.8456    0.0000 C   0  0  0  0  0  0  0  0  0  0  0  0
   -0.6600   -1.2581    0.0000 N   0  0  0  0  0  0  0  0  0  0  0  0
    0.0824   -0.8456    0.0000 C   0  0  0  0  0  0  0  0  0  0  0  0
    0.0824    0.0206    0.0000 C   0  0  0  0  0  0  0  0  0  0  0  0
    0.0824    0.8456    0.0000 C   0  0  0  0  0  0  0  0  0  0  0  0
   -1.3613    0.8456    0.0000 N   0  0  0  0  0  0  0  0  0  0  0  0
   -0.6600   -2.0832    0.0000 C   0  0  0  0  0  0  0  0  0  0  0  0
  1  2  1  0  0  0  0
  1  6  1  0  0  0  0
  1  7  1  0  0  0  0
  1  8  1  0  0  0  0
  2  3  1  0  0  0  0
  3  4  1  0  0  0  0
  4  5  1  0  0  0  0
  4  9  1  0  0  0  0
  5  6  1  0  0  0  0
M  END
$$$$
Cn1nn[nH]c1=O
 OpenBabel07182308452D

  7  7  0  0  0  0  0  0  0  0999 V2000
    0.0412   -2.4544    0.0000 C   0  0  0  0  0  0  0  0  0  0  0  0
    0.7837   -2.0832    0.0000 N   0  0  0  0  0  0  0  0  0  0  0  0
    1.4437   -2.5369    0.0000 C   0  0  0  0  0  0  0  0  0  0  0  0
    2.1038   -2.0419    0.0000 N   0  0  0  0  0  0  0  0  0  0  0  0
    1.8563   -1.2993    0.0000 N   0  0  0  0  0  0  0  0  0  0  0  0
    1.0312   -1.2993    0.0000 N   0  0  0  0  0  0  0  0  0  0  0  0
    1.4437   -3.3619    0.0000 O   0  0  0  0  0  0  0  0  0  0  0  0
  1  2  1  0  0  0  0
  2  3  1  0  0  0  0
  2  6  1  0  0  0  0
  3  4  1  0  0  0  0
  3  7  2  0  0  0  0
  4  5  1  0  0  0  0
  5  6  2  0  0  0  0
M  END
$$$$
O=C1NCC[C@H](N)C(=O)N[C@@H](C)C(=O)N[C@H](C)C(=O)N[C@@H](C(=O)N[C@H](C(=O)NCC(=O)NC1)C)C
 OpenBabel07182308452D

 43 43  0  0  0  0  0  0  0  0999 V2000
    4.8668   -2.2446    0.0000 C   0  0  0  0  0  0  0  0  0  0  0  0
    5.4440   -2.1063    0.0000 C   0  0  0  0  0  0  0  0  0  0  0  0
    4.0970   -2.2446    0.0000 N   0  0  0  0  0  0  0  0  0  0  0  0
    5.9906   -1.8349    0.0000 N   0  0  0  0  0  0  0  0  0  0  0  0
    3.4983   -2.0793    0.0000 C   0  0  0  0  0  0  0  0  0  0  0  0
    2.9990   -1.8105    0.0000 C   0  0  0  0  0  0  0  0  0  0  0  0
    2.4496   -1.2741    0.0000 N   0  0  0  0  0  0  0  0  0  0  0  0
    7.0203   -0.2325    0.0000 N   0  0  0  0  0  0  0  0  0  0  0  0
    2.1555   -0.6520    0.0000 C   0  0  0  0  0  0  0  0  0  0  0  0
    7.0227    0.5270    0.0000 C   0  0  0  0  0  0  0  0  0  0  0  0
    2.0056   -0.1691    0.0000 C   0  0  0  0  0  0  0  0  0  0  0  0
    6.7520    1.0737    0.0000 C   0  0  2  0  0  0  0  0  0  0  0  0
    2.0275    0.5802    0.0000 C   0  0  1  0  0  0  0  0  0  0  0  0
    6.5619    1.6008    0.0000 N   0  0  0  0  0  0  0  0  0  0  0  0
    2.2756    1.1295    0.0000 C   0  0  0  0  0  0  0  0  0  0  0  0
    5.8944    2.2249    0.0000 C   0  0  0  0  0  0  0  0  0  0  0  0
    2.5013    1.6253    0.0000 N   0  0  0  0  0  0  0  0  0  0  0  0
    3.0913    2.1618    0.0000 C   0  0  2  0  0  0  0  0  0  0  0  0
    5.3777    2.4050    0.0000 C   0  0  2  0  0  0  0  0  0  0  0  0
    3.9486    2.4563    0.0000 C   0  0  0  0  0  0  0  0  0  0  0  0
    4.7752    2.5734    0.0000 N   0  0  0  0  0  0  0  0  0  0  0  0
    3.7352    3.4479    0.0000 O   0  0  0  0  0  0  0  0  0  0  0  0
    5.6758    3.3784    0.0000 C   0  0  0  0  0  0  0  0  0  0  0  0
    7.8061    1.5289    0.0000 C   0  0  0  0  0  0  0  0  0  0  0  0
    8.0217    0.7428    0.0000 O   0  0  0  0  0  0  0  0  0  0  0  0
    6.8624   -0.7429    0.0000 C   0  0  2  0  0  0  0  0  0  0  0  0
    6.5477   -1.3042    0.0000 C   0  0  0  0  0  0  0  0  0  0  0  0
    7.2320   -2.0338    0.0000 O   0  0  0  0  0  0  0  0  0  0  0  0
    7.4968   -0.8626    0.0000 C   0  0  0  0  0  0  0  0  0  0  0  0
    2.3892   -2.6225    0.0000 O   0  0  0  0  0  0  0  0  0  0  0  0
    6.3429    2.9593    0.0000 O   0  0  0  0  0  0  0  0  0  0  0  0
    4.9690   -3.0995    0.0000 O   0  0  0  0  0  0  0  0  0  0  0  0
    2.6525    2.9038    0.0000 C   0  0  0  0  0  0  0  0  0  0  0  0
    1.4953    1.5041    0.0000 O   0  0  0  0  0  0  0  0  0  0  0  0
    1.1754    0.6279    0.0000 N   0  0  0  0  0  0  0  0  0  0  0  0
    3.9648   -3.2202    0.0000 H   0  0  0  0  0  0  0  0  0  0  0  0
    6.5554   -2.6413    0.0000 H   0  0  0  0  0  0  0  0  0  0  0  0
    1.6480   -1.8457    0.0000 H   0  0  0  0  0  0  0  0  0  0  0  0
    7.9935   -0.3812    0.0000 H   0  0  0  0  0  0  0  0  0  0  0  0
    7.3840    2.1424    0.0000 H   0  0  0  0  0  0  0  0  0  0  0  0
    1.7058    2.2053    0.0000 H   0  0  0  0  0  0  0  0  0  0  0  0
    4.8400    3.5558    0.0000 H   0  0  0  0  0  0  0  0  0  0  0  0
    0.7482    1.5149    0.0000 H   0  0  0  0  0  0  0  0  0  0  0  0
  1  2  1  0  0  0  0
  1  3  1  0  0  0  0
  1 32  2  0  0  0  0
  2  4  1  0  0  0  0
  3  5  1  0  0  0  0
  3 36  1  0  0  0  0
  4 27  1  0  0  0  0
  4 37  1  0  0  0  0
  5  6  1  0  0  0  0
  6  7  1  0  0  0  0
  6 30  2  0  0  0  0
  7  9  1  0  0  0  0
  7 38  1  0  0  0  0
  8 10  1  0  0  0  0
  8 39  1  0  0  0  0
  9 11  1  0  0  0  0
 10 25  2  0  0  0  0
 10 12  1  0  0  0  0
 11 13  1  0  0  0  0
 12 24  1  1  0  0  0
 12 14  1  0  0  0  0
 13 35  1  6  0  0  0
 13 15  1  0  0  0  0
 14 16  1  0  0  0  0
 14 40  1  0  0  0  0
 15 34  2  0  0  0  0
 15 17  1  0  0  0  0
 16 31  2  0  0  0  0
 16 19  1  0  0  0  0
 17 18  1  0  0  0  0
 17 41  1  0  0  0  0
 18 33  1  1  0  0  0
 18 20  1  0  0  0  0
 19 21  1  0  0  0  0
 19 23  1  6  0  0  0
 20 21  1  0  0  0  0
 20 22  2  0  0  0  0
 21 42  1  0  0  0  0
 26 27  1  0  0  0  0
 26  8  1  0  0  0  0
 26 29  1  1  0  0  0
 27 28  2  0  0  0  0
 35 43  1  0  0  0  0
M  END
$$$$
Cc1ccnnc1
 OpenBabel07182308452D

  7  7  0  0  0  0  0  0  0  0999 V2000
    4.5080    0.4125    0.0000 N   0  0  0  0  0  0  0  0  0  0  0  0
    5.2224    0.8250    0.0000 N   0  0  0  0  0  0  0  0  0  0  0  0
    3.7935    0.8250    0.0000 C   0  0  0  0  0  0  0  0  0  0  0  0
    3.7935    1.6500    0.0000 C   0  0  0  0  0  0  0  0  0  0  0  0
    4.5080    2.0625    0.0000 C   0  0  0  0  0  0  0  0  0  0  0  0
    5.2224    1.6500    0.0000 C   0  0  0  0  0  0  0  0  0  0  0  0
    3.0791    2.0625    0.0000 C   0  0  0  0  0  0  0  0  0  0  0  0
  1  2  1  0  0  0  0
  1  3  2  0  0  0  0
  2  6  2  0  0  0  0
  3  4  1  0  0  0  0
  4  5  2  0  0  0  0
  4  7  1  0  0  0  0
  5  6  1  0  0  0  0
M  END
$$$$
Nc1ccccc1O
 OpenBabel07182308452D

 10 10  0  0  0  0  0  0  0  0999 V2000
    3.7935    2.1409    0.0000 O   0  0  0  0  0  0  0  0  0  0  0  0
    5.2224    2.9659    0.0000 N   0  0  0  0  0  0  0  0  0  0  0  0
    5.9370    0.9034    0.0000 C   0  0  0  0  0  0  0  0  0  0  0  0
    4.5080    1.7284    0.0000 C   0  0  0  0  0  0  0  0  0  0  0  0
    5.2224    2.1409    0.0000 C   0  0  0  0  0  0  0  0  0  0  0  0
    5.9370    1.7284    0.0000 C   0  0  0  0  0  0  0  0  0  0  0  0
    5.2224    0.4909    0.0000 C   0  0  0  0  0  0  0  0  0  0  0  0
    4.5080    0.9034    0.0000 C   0  0  0  0  0  0  0  0  0  0  0  0
    6.0750    3.4581    0.0000 H   0  0  0  0  0  0  0  0  0  0  0  0
    4.3698    3.4581    0.0000 H   0  0  0  0  0  0  0  0  0  0  0  0
  1  4  1  0  0  0  0
  2  5  1  0  0  0  0
  2  9  1  0  0  0  0
  2 10  1  0  0  0  0
  3  6  2  0  0  0  0
  3  7  1  0  0  0  0
  4  5  2  0  0  0  0
  4  8  1  0  0  0  0
  5  6  1  0  0  0  0
  7  8  2  0  0  0  0
M  END
$$$$
NN1C(C)Cc2c1cccc2
 OpenBabel07182308452D

 12 13  0  0  1  0  0  0  0  0999 V2000
    3.8596   -1.3010    0.0000 N   0  0  0  0  0  0  0  0  0  0  0  0
    4.1159   -0.5169    0.0000 N   0  0  0  0  0  0  0  0  0  0  0  0
    4.3411   -1.9650    0.0000 C   0  0  3  0  0  0  0  0  0  0  0  0
    3.8596   -2.6289    0.0000 C   0  0  0  0  0  0  0  0  0  0  0  0
    3.0790   -2.3775    0.0000 C   0  0  0  0  0  0  0  0  0  0  0  0
    3.0790   -1.5525    0.0000 C   0  0  0  0  0  0  0  0  0  0  0  0
    5.1661   -1.9650    0.0000 C   0  0  0  0  0  0  0  0  0  0  0  0
    2.3645   -2.7900    0.0000 C   0  0  0  0  0  0  0  0  0  0  0  0
    2.3645   -1.1400    0.0000 C   0  0  0  0  0  0  0  0  0  0  0  0
    1.6500   -2.3775    0.0000 C   0  0  0  0  0  0  0  0  0  0  0  0
    1.6500   -1.5525    0.0000 C   0  0  0  0  0  0  0  0  0  0  0  0
    3.4584    0.2159    0.0000 H   0  0  0  0  0  0  0  0  0  0  0  0
  1  2  1  0  0  0  0
  1  3  1  0  0  0  0
  1  6  1  0  0  0  0
  2 12  1  0  0  0  0
  3  4  1  0  0  0  0
  3  7  1  0  0  0  0
  4  5  1  0  0  0  0
  5  6  1  0  0  0  0
  5  8  2  0  0  0  0
  6  9  2  0  0  0  0
  8 10  1  0  0  0  0
  9 11  1  0  0  0  0
 10 11  2  0  0  0  0
M  END
$$$$
Cc1ccncc1
 OpenBabel07182308452D

  7  7  0  0  1  0  0  0  0  0999 V2000
    4.2365    3.3001    0.0000 N   0  0  0  0  0  0  0  0  0  0  0  0
    4.2365    0.8250    0.0000 C   0  0  0  0  0  0  0  0  0  0  0  0
    4.2365    1.6500    0.0000 C   0  0  0  0  0  0  0  0  0  0  0  0
    4.9509    2.0625    0.0000 C   0  0  0  0  0  0  0  0  0  0  0  0
    3.5220    2.0625    0.0000 C   0  0  0  0  0  0  0  0  0  0  0  0
    4.9509    2.8876    0.0000 C   0  0  0  0  0  0  0  0  0  0  0  0
    3.5220    2.8876    0.0000 C   0  0  0  0  0  0  0  0  0  0  0  0
  1  6  2  0  0  0  0
  1  7  1  0  0  0  0
  2  3  1  0  0  0  0
  3  4  2  0  0  0  0
  3  5  1  0  0  0  0
  4  6  1  0  0  0  0
  5  7  2  0  0  0  0
M  END
$$$$
CC1C(=O)NNC1=O
 OpenBabel07182308452D

  8  8  0  0  0  0  0  0  0  0999 V2000
    3.9995    1.1186    0.0000 O   0  0  0  0  0  0  0  0  0  0  0  0
    1.6500   -0.5884    0.0000 O   0  0  0  0  0  0  0  0  0  0  0  0
    3.7695   -0.3335    0.0000 N   0  0  0  0  0  0  0  0  0  0  0  0
    3.1021   -0.8184    0.0000 N   0  0  0  0  0  0  0  0  0  0  0  0
    2.6896    0.4512    0.0000 C   0  0  0  0  0  0  0  0  0  0  0  0
    2.2047    1.1186    0.0000 C   0  0  0  0  0  0  0  0  0  0  0  0
    3.5146    0.4512    0.0000 C   0  0  0  0  0  0  0  0  0  0  0  0
    2.4347   -0.3335    0.0000 C   0  0  0  0  0  0  0  0  0  0  0  0
  1  7  2  0  0  0  0
  2  8  2  0  0  0  0
  3  4  1  0  0  0  0
  3  7  1  0  0  0  0
  4  8  1  0  0  0  0
  5  6  1  0  0  0  0
  5  7  1  0  0  0  0
  5  8  1  0  0  0  0
M  END
$$$$
Oc1cccc(c1)O
 OpenBabel07182308452D

 10 10  0  0  1  0  0  0  0  0999 V2000
    1.6500   -2.2193    0.0000 O   0  0  0  0  0  0  0  0  0  0  0  0
    4.5080   -2.2193    0.0000 O   0  0  0  0  0  0  0  0  0  0  0  0
    3.0791   -0.5693    0.0000 C   0  0  0  0  0  0  0  0  0  0  0  0
    3.7935   -0.9818    0.0000 C   0  0  0  0  0  0  0  0  0  0  0  0
    2.3645   -0.9818    0.0000 C   0  0  0  0  0  0  0  0  0  0  0  0
    2.3645   -1.8068    0.0000 C   0  0  0  0  0  0  0  0  0  0  0  0
    3.7935   -1.8068    0.0000 C   0  0  0  0  0  0  0  0  0  0  0  0
    3.0791   -2.2193    0.0000 C   0  0  0  0  0  0  0  0  0  0  0  0
    0.8385   -1.7508    0.0000 H   0  0  0  0  0  0  0  0  0  0  0  0
    4.5080   -3.1563    0.0000 H   0  0  0  0  0  0  0  0  0  0  0  0
  1  6  1  0  0  0  0
  1  9  1  0  0  0  0
  2  7  1  0  0  0  0
  2 10  1  0  0  0  0
  3  4  2  0  0  0  0
  3  5  1  0  0  0  0
  4  7  1  0  0  0  0
  5  6  2  0  0  0  0
  6  8  1  0  0  0  0
  7  8  2  0  0  0  0
M  END
$$$$
O=c1cc[nH]c2c1cccc2
 OpenBabel07182308452D

 11 12  0  0  0  0  0  0  0  0999 V2000
    4.2364    1.8676    0.0000 O   0  0  0  0  0  0  0  0  0  0  0  0
    4.2364   -0.6075    0.0000 N   0  0  0  0  0  0  0  0  0  0  0  0
    4.9509   -0.1949    0.0000 C   0  0  0  0  0  0  0  0  0  0  0  0
    4.9509    0.6301    0.0000 C   0  0  0  0  0  0  0  0  0  0  0  0
    5.6884   -0.6360    0.0000 C   0  0  0  0  0  0  0  0  0  0  0  0
    6.4359   -0.2121    0.0000 C   0  0  0  0  0  0  0  0  0  0  0  0
    3.5220   -0.1949    0.0000 C   0  0  0  0  0  0  0  0  0  0  0  0
    4.2364    1.0426    0.0000 C   0  0  0  0  0  0  0  0  0  0  0  0
    3.5220    0.6301    0.0000 C   0  0  0  0  0  0  0  0  0  0  0  0
    5.6884    1.0712    0.0000 C   0  0  0  0  0  0  0  0  0  0  0  0
    6.4359    0.6473    0.0000 C   0  0  0  0  0  0  0  0  0  0  0  0
  1  8  2  0  0  0  0
  2  3  1  0  0  0  0
  2  7  1  0  0  0  0
  3  4  2  0  0  0  0
  3  5  1  0  0  0  0
  4  8  1  0  0  0  0
  4 10  1  0  0  0  0
  5  6  2  0  0  0  0
  6 11  1  0  0  0  0
  7  9  2  0  0  0  0
  8  9  1  0  0  0  0
 10 11  2  0  0  0  0
M  END
$$$$
Nc1nncs1
 OpenBabel07182308452D

  7  7  0  0  0  0  0  0  0  0999 V2000
    4.4998   -0.5172    0.0000 S   0  0  0  0  0  0  0  0  0  0  0  0
    3.0477   -0.2872    0.0000 N   0  0  0  0  0  0  0  0  0  0  0  0
    4.9123    0.7524    0.0000 N   0  0  0  0  0  0  0  0  0  0  0  0
    4.0873    0.7524    0.0000 N   0  0  0  0  0  0  0  0  0  0  0  0
    5.1672   -0.0323    0.0000 C   0  0  0  0  0  0  0  0  0  0  0  0
    3.8324   -0.0323    0.0000 C   0  0  0  0  0  0  0  0  0  0  0  0
    2.8430   -1.2502    0.0000 H   0  0  0  0  0  0  0  0  0  0  0  0
  1  5  1  0  0  0  0
  1  6  1  0  0  0  0
  2  6  1  0  0  0  0
  2  7  1  0  0  0  0
  3  4  1  0  0  0  0
  3  5  2  0  0  0  0
  4  6  2  0  0  0  0
M  END
$$$$
CN1CC(=O)N2[C@@H](C1=O)Cc1c(C2)[nH]c2c1cccc2
 OpenBabel07182308452D

 22 25  0  0  1  0  0  0  0  0999 V2000
    7.2908    0.5262    0.0000 O   0  0  0  0  0  0  0  0  0  0  0  0
    4.3835    2.2047    0.0000 O   0  0  0  0  0  0  0  0  0  0  0  0
    5.1159    0.9412    0.0000 N   0  0  0  0  0  0  0  0  0  0  0  0
    3.7934   -0.8466    0.0000 N   0  0  0  0  0  0  0  0  0  0  0  0
    6.5878    1.8063    0.0000 N   0  0  0  0  0  0  0  0  0  0  0  0
    5.8304    0.5287    0.0000 C   0  0  2  0  0  0  0  0  0  0  0  0
    4.4015    0.5287    0.0000 C   0  0  0  0  0  0  0  0  0  0  0  0
    5.8304   -0.2963    0.0000 C   0  0  0  0  0  0  0  0  0  0  0  0
    4.4015   -0.2963    0.0000 C   0  0  0  0  0  0  0  0  0  0  0  0
    5.1159   -0.7088    0.0000 C   0  0  0  0  0  0  0  0  0  0  0  0
    6.5811    0.9469    0.0000 C   0  0  0  0  0  0  0  0  0  0  0  0
    4.9433   -1.5105    0.0000 C   0  0  0  0  0  0  0  0  0  0  0  0
    5.1027    1.8005    0.0000 C   0  0  0  0  0  0  0  0  0  0  0  0
    5.8436    2.2359    0.0000 C   0  0  0  0  0  0  0  0  0  0  0  0
    4.1276   -1.5955    0.0000 C   0  0  0  0  0  0  0  0  0  0  0  0
    5.4555   -2.1943    0.0000 C   0  0  0  0  0  0  0  0  0  0  0  0
    3.7675   -2.3701    0.0000 C   0  0  0  0  0  0  0  0  0  0  0  0
    7.3038    2.2160    0.0000 C   0  0  0  0  0  0  0  0  0  0  0  0
    5.1134   -2.9770    0.0000 C   0  0  0  0  0  0  0  0  0  0  0  0
    4.2637   -3.0655    0.0000 C   0  0  0  0  0  0  0  0  0  0  0  0
    6.3994    0.1944    0.0000 H   0  0  0  0  0  0  0  0  0  0  0  0
    2.8301   -0.6435    0.0000 H   0  0  0  0  0  0  0  0  0  0  0  0
  1 11  2  0  0  0  0
  2 13  2  0  0  0  0
  3  6  1  0  0  0  0
  3  7  1  0  0  0  0
  3 13  1  0  0  0  0
  4  9  1  0  0  0  0
  4 15  1  0  0  0  0
  4 22  1  0  0  0  0
  5 11  1  0  0  0  0
  5 14  1  0  0  0  0
  5 18  1  0  0  0  0
  6  8  1  0  0  0  0
  6 11  1  0  0  0  0
  6 21  1  6  0  0  0
  7  9  1  0  0  0  0
  8 10  1  0  0  0  0
  9 10  2  0  0  0  0
 10 12  1  0  0  0  0
 12 15  1  0  0  0  0
 12 16  2  0  0  0  0
 13 14  1  0  0  0  0
 15 17  2  0  0  0  0
 16 19  1  0  0  0  0
 17 20  1  0  0  0  0
 19 20  2  0  0  0  0
M  END
$$$$
Clc1ccc2c(c1)c1ccccc1[nH]2
 OpenBabel07182308452D

 15 17  0  0  1  0  0  0  0  0999 V2000
    1.5842   -1.3784    0.0000 Cl  0  0  0  0  0  0  0  0  0  0  0  0
    3.8588    0.8874    0.0000 N   0  0  0  0  0  0  0  0  0  0  0  0
    4.2548   -0.3315    0.0000 C   0  0  0  0  0  0  0  0  0  0  0  0
    4.4997    0.4218    0.0000 C   0  0  0  0  0  0  0  0  0  0  0  0
    3.4628   -0.3315    0.0000 C   0  0  0  0  0  0  0  0  0  0  0  0
    5.8607   -0.0031    0.0000 C   0  0  0  0  0  0  0  0  0  0  0  0
    3.2180    0.4218    0.0000 C   0  0  0  0  0  0  0  0  0  0  0  0
    5.3039    0.6058    0.0000 C   0  0  0  0  0  0  0  0  0  0  0  0
    4.7974   -0.9531    0.0000 C   0  0  0  0  0  0  0  0  0  0  0  0
    5.6057   -0.7878    0.0000 C   0  0  0  0  0  0  0  0  0  0  0  0
    2.9203   -0.9531    0.0000 C   0  0  0  0  0  0  0  0  0  0  0  0
    2.4137    0.6058    0.0000 C   0  0  0  0  0  0  0  0  0  0  0  0
    2.1119   -0.7878    0.0000 C   0  0  0  0  0  0  0  0  0  0  0  0
    1.8570   -0.0031    0.0000 C   0  0  0  0  0  0  0  0  0  0  0  0
    3.8588    1.8719    0.0000 H   0  0  0  0  0  0  0  0  0  0  0  0
  1 13  1  0  0  0  0
  2  4  1  0  0  0  0
  2  7  1  0  0  0  0
  2 15  1  0  0  0  0
  3  4  2  0  0  0  0
  3  5  1  0  0  0  0
  3  9  1  0  0  0  0
  4  8  1  0  0  0  0
  5  7  2  0  0  0  0
  5 11  1  0  0  0  0
  6  8  2  0  0  0  0
  6 10  1  0  0  0  0
  7 12  1  0  0  0  0
  9 10  2  0  0  0  0
 11 13  2  0  0  0  0
 12 14  2  0  0  0  0
 13 14  1  0  0  0  0
M  END
$$$$
C#C[C@]1(O)CC[C@@H]2[C@]1(C)CC[C@H]1[C@H]2CCC2=C[C@H](CC[C@H]12)O
 OpenBabel07182308452D

 26 29  0  0  1  0  0  0  0  0999 V2000
    8.9774    0.8591    0.0000 O   0  0  0  0  0  0  0  0  0  0  0  0
    3.0790   -2.3944    0.0000 O   0  0  0  0  0  0  0  0  0  0  0  0
    7.5284    0.1238    0.0000 C   0  0  1  0  0  0  0  0  0  0  0  0
    7.5284   -0.7012    0.0000 C   0  0  2  0  0  0  0  0  0  0  0  0
    6.8139   -1.1137    0.0000 C   0  0  1  0  0  0  0  0  0  0  0  0
    6.0994   -0.7012    0.0000 C   0  0  2  0  0  0  0  0  0  0  0  0
    8.3090    0.3753    0.0000 C   0  0  2  0  0  0  0  0  0  0  0  0
    6.8139    0.5363    0.0000 C   0  0  0  0  0  0  0  0  0  0  0  0
    8.3090   -0.9526    0.0000 C   0  0  0  0  0  0  0  0  0  0  0  0
    6.0994    0.1238    0.0000 C   0  0  0  0  0  0  0  0  0  0  0  0
    5.3487   -1.1193    0.0000 C   0  0  2  0  0  0  0  0  0  0  0  0
    8.7906   -0.2887    0.0000 C   0  0  0  0  0  0  0  0  0  0  0  0
    6.8272   -1.9729    0.0000 C   0  0  0  0  0  0  0  0  0  0  0  0
    7.5284    0.9489    0.0000 C   0  0  0  0  0  0  0  0  0  0  0  0
    5.3420   -1.9786    0.0000 C   0  0  0  0  0  0  0  0  0  0  0  0
    6.0862   -2.4083    0.0000 C   0  0  0  0  0  0  0  0  0  0  0  0
    4.5840   -0.6539    0.0000 C   0  0  0  0  0  0  0  0  0  0  0  0
    3.8019   -1.0895    0.0000 C   0  0  0  0  0  0  0  0  0  0  0  0
    8.0555    1.1604    0.0000 C   0  0  0  0  0  0  0  0  0  0  0  0
    4.5703   -2.4322    0.0000 C   0  0  0  0  0  0  0  0  0  0  0  0
    3.7951   -1.9846    0.0000 C   0  0  1  0  0  0  0  0  0  0  0  0
    7.8019    1.9454    0.0000 C   0  0  0  0  0  0  0  0  0  0  0  0
    7.5983   -1.3575    0.0000 H   0  0  0  0  0  0  0  0  0  0  0  0
    7.3880   -1.4392    0.0000 H   0  0  0  0  0  0  0  0  0  0  0  0
    6.6710   -0.3712    0.0000 H   0  0  0  0  0  0  0  0  0  0  0  0
    5.3614   -0.4595    0.0000 H   0  0  0  0  0  0  0  0  0  0  0  0
  3  4  1  1  0  0  0
  3  8  1  0  0  0  0
  3 14  1  0  0  0  0
  4  5  1  1  0  0  0
  4  9  1  0  0  0  0
  4 23  1  0  0  0  0
  5  6  1  1  0  0  0
  5 13  1  0  0  0  0
  5 24  1  0  0  0  0
  6 10  1  0  0  0  0
  6 11  1  6  0  0  0
  6 25  1  0  0  0  0
  7  1  1  0  0  0  0
  7  3  1  1  0  0  0
  7 12  1  0  0  0  0
  7 19  1  0  0  0  0
  8 10  1  0  0  0  0
  9 12  1  0  0  0  0
 11 15  1  0  0  0  0
 11 17  1  0  0  0  0
 11 26  1  1  0  0  0
 13 16  1  0  0  0  0
 15 16  1  0  0  0  0
 15 20  2  0  0  0  0
 17 18  1  0  0  0  0
 18 21  1  0  0  0  0
 19 22  3  0  0  0  0
 20 21  1  0  0  0  0
 21  2  1  1  0  0  0
M  END
$$$$
O=c1[nH]c(=O)c2c(n1C)nc[nH]2
 OpenBabel07182308452D

 14 15  0  0  0  0  0  0  0  0999 V2000
    1.6500   -0.2063    0.0000 O   0  0  0  0  0  0  0  0  0  0  0  0
    3.0791    2.2688    0.0000 O   0  0  0  0  0  0  0  0  0  0  0  0
    3.0791   -0.2063    0.0000 N   0  0  0  0  0  0  0  0  0  0  0  0
    2.3645    1.0313    0.0000 N   0  0  0  0  0  0  0  0  0  0  0  0
    4.5741    1.2827    0.0000 N   0  0  0  0  0  0  0  0  0  0  0  0
    4.5741   -0.0451    0.0000 N   0  0  0  0  0  0  0  0  0  0  0  0
    3.0791   -1.0313    0.0000 C   0  0  0  0  0  0  0  0  0  0  0  0
    3.7935    0.2063    0.0000 C   0  0  0  0  0  0  0  0  0  0  0  0
    3.7935    1.0313    0.0000 C   0  0  0  0  0  0  0  0  0  0  0  0
    2.3645    0.2063    0.0000 C   0  0  0  0  0  0  0  0  0  0  0  0
    3.0791    1.4438    0.0000 C   0  0  0  0  0  0  0  0  0  0  0  0
    5.0556    0.6188    0.0000 C   0  0  0  0  0  0  0  0  0  0  0  0
    1.5119    1.5236    0.0000 H   0  0  0  0  0  0  0  0  0  0  0  0
    4.8799    2.2185    0.0000 H   0  0  0  0  0  0  0  0  0  0  0  0
  1 10  2  0  0  0  0
  2 11  2  0  0  0  0
  3  7  1  0  0  0  0
  3  8  1  0  0  0  0
  3 10  1  0  0  0  0
  4 10  1  0  0  0  0
  4 11  1  0  0  0  0
  4 13  1  0  0  0  0
  5  9  1  0  0  0  0
  5 12  1  0  0  0  0
  5 14  1  0  0  0  0
  6  8  1  0  0  0  0
  6 12  2  0  0  0  0
  8  9  2  0  0  0  0
  9 11  1  0  0  0  0
M  END
$$$$
C[C@@H]1CCC[C@@H](C1)O
 OpenBabel07182308452D

  9  9  0  0  1  0  0  0  0  0999 V2000
    0.7145    1.2375    0.0000 C   0  0  0  0  0  0  0  0  0  0  0  0
    1.4289    0.8250    0.0000 C   0  0  0  0  0  0  0  0  0  0  0  0
    1.4289    0.0000    0.0000 C   0  0  0  0  0  0  0  0  0  0  0  0
    0.7145   -0.4125    0.0000 C   0  0  1  0  0  0  0  0  0  0  0  0
    0.7145   -1.2375    0.0000 C   0  0  0  0  0  0  0  0  0  0  0  0
    0.0000    0.0000    0.0000 C   0  0  0  0  0  0  0  0  0  0  0  0
    0.0000    0.8250    0.0000 C   0  0  1  0  0  0  0  0  0  0  0  0
   -0.7145    1.2375    0.0000 O   0  0  0  0  0  0  0  0  0  0  0  0
   -0.7145    2.2075    0.0000 H   0  0  0  0  0  0  0  0  0  0  0  0
  1  2  1  0  0  0  0
  1  7  1  0  0  0  0
  2  3  1  0  0  0  0
  3  4  1  0  0  0  0
  4  5  1  1  0  0  0
  4  6  1  0  0  0  0
  6  7  1  0  0  0  0
  7  8  1  1  0  0  0
  8  9  1  0  0  0  0
M  END
$$$$
C[C@@H]1C/C=C/C=C/C=C/C=C/CC[C@@H]2O[C@@](C[C@H](C[C@@H]3[C@@H](/C=C/C(=O)O1)O3)O)(O)C[C@@H](C2)O
 OpenBabel07182308452D

 39 41  0  0  0  0  0  0  0  0999 V2000
    0.5336   -1.0159    0.0000 C   0  0  1  0  0  0  0  0  0  0  0  0
    4.0613   -1.4545    0.0000 O   0  0  0  0  0  0  0  0  0  0  0  0
    3.3500   -1.0306    0.0000 C   0  0  1  0  0  0  0  0  0  0  0  0
   -0.8892   -1.8442    0.0000 C   0  0  0  0  0  0  0  0  0  0  0  0
    4.0712   -0.6261    0.0000 C   0  0  1  0  0  0  0  0  0  0  0  0
   -0.8942   -1.0208    0.0000 C   0  0  1  0  0  0  0  0  0  0  0  0
   -0.1826   -0.6066    0.0000 O   0  0  0  0  0  0  0  0  0  0  0  0
   -0.1729   -2.2536    0.0000 C   0  0  2  0  0  0  0  0  0  0  0  0
    0.5383   -1.8345    0.0000 C   0  0  0  0  0  0  0  0  0  0  0  0
    1.2450   -0.5969    0.0000 C   0  0  0  0  0  0  0  0  0  0  0  0
    4.0808    0.1973    0.0000 C   0  0  0  0  0  0  0  0  0  0  0  0
    4.8068    1.4252    0.0000 C   0  0  0  0  0  0  0  0  0  0  0  0
    2.6726   -0.5920    0.0000 C   0  0  0  0  0  0  0  0  0  0  0  0
   -1.6103   -0.6115    0.0000 C   0  0  0  0  0  0  0  0  0  0  0  0
    4.0955    1.8442    0.0000 O   0  0  0  0  0  0  0  0  0  0  0  0
    4.8020    0.6017    0.0000 C   0  0  0  0  0  0  0  0  0  0  0  0
   -1.6103    0.2119    0.0000 C   0  0  0  0  0  0  0  0  0  0  0  0
    1.9613   -1.0062    0.0000 C   0  0  2  0  0  0  0  0  0  0  0  0
    5.5280    1.8345    0.0000 O   0  0  0  0  0  0  0  0  0  0  0  0
    0.5336    3.0868    0.0000 C   0  0  0  0  0  0  0  0  0  0  0  0
   -0.1826    2.6774    0.0000 C   0  0  0  0  0  0  0  0  0  0  0  0
   -0.1826    1.8541    0.0000 C   0  0  0  0  0  0  0  0  0  0  0  0
    1.2450    2.6774    0.0000 C   0  0  0  0  0  0  0  0  0  0  0  0
   -0.8989    1.4447    0.0000 C   0  0  0  0  0  0  0  0  0  0  0  0
    1.9613    3.0868    0.0000 C   0  0  0  0  0  0  0  0  0  0  0  0
   -0.8942    0.6212    0.0000 C   0  0  0  0  0  0  0  0  0  0  0  0
    0.5383   -0.1876    0.0000 O   0  0  0  0  0  0  0  0  0  0  0  0
    2.6726    2.6726    0.0000 C   0  0  0  0  0  0  0  0  0  0  0  0
   -0.1729   -3.0820    0.0000 O   0  0  0  0  0  0  0  0  0  0  0  0
    4.1004    2.6677    0.0000 C   0  0  1  0  0  0  0  0  0  0  0  0
    1.9613   -1.8345    0.0000 O   0  0  0  0  0  0  0  0  0  0  0  0
    3.3889    3.0820    0.0000 C   0  0  0  0  0  0  0  0  0  0  0  0
    4.8215    3.0770    0.0000 C   0  0  0  0  0  0  0  0  0  0  0  0
    4.7922   -1.0402    0.0000 H   0  0  0  0  0  0  0  0  0  0  0  0
    2.9406   -1.7517    0.0000 H   0  0  0  0  0  0  0  0  0  0  0  0
   -0.8843   -0.1924    0.0000 H   0  0  0  0  0  0  0  0  0  0  0  0
    1.3811    0.2926    0.0000 H   0  0  0  0  0  0  0  0  0  0  0  0
   -1.0129   -3.5670    0.0000 H   0  0  0  0  0  0  0  0  0  0  0  0
    1.1213   -2.3195    0.0000 H   0  0  0  0  0  0  0  0  0  0  0  0
  1 27  1  1  0  0  0
  2  3  1  0  0  0  0
  2  5  1  0  0  0  0
  3 13  1  0  0  0  0
  3  5  1  1  0  0  0
  3 35  1  0  0  0  0
  4  8  1  0  0  0  0
  4  6  1  0  0  0  0
  5 34  1  6  0  0  0
  6  7  1  0  0  0  0
  6 36  1  1  0  0  0
  7  1  1  0  0  0  0
  8  9  1  0  0  0  0
  8 29  1  6  0  0  0
  9  1  1  0  0  0  0
 10  1  1  0  0  0  0
 11  5  1  0  0  0  0
 12 16  1  0  0  0  0
 13 18  1  0  0  0  0
 14  6  1  0  0  0  0
 15 12  1  0  0  0  0
 16 11  2  0  0  0  0
 17 14  1  0  0  0  0
 18 10  1  0  0  0  0
 18 31  1  6  0  0  0
 19 12  2  0  0  0  0
 20 21  1  0  0  0  0
 21 22  2  0  0  0  0
 22 24  1  0  0  0  0
 23 20  2  0  0  0  0
 24 26  2  0  0  0  0
 25 23  1  0  0  0  0
 26 17  1  0  0  0  0
 27 37  1  0  0  0  0
 28 25  2  0  0  0  0
 28 32  1  0  0  0  0
 29 38  1  0  0  0  0
 30 15  1  0  0  0  0
 30 33  1  1  0  0  0
 31 39  1  0  0  0  0
 32 30  1  0  0  0  0
M  END
$$$$
O=c1cn[nH]c2c1cc1OCOc1c2
 OpenBabel07182308452D

 14 16  0  0  0  0  0  0  0  0999 V2000
    7.2157   -0.4535    0.0000 O   0  0  0  0  0  0  0  0  0  0  0  0
    7.2157    0.8743    0.0000 O   0  0  0  0  0  0  0  0  0  0  0  0
    4.2780    1.8890    0.0000 O   0  0  0  0  0  0  0  0  0  0  0  0
    4.2685   -0.6433    0.0000 N   0  0  0  0  0  0  0  0  0  0  0  0
    3.5210   -0.2193    0.0000 N   0  0  0  0  0  0  0  0  0  0  0  0
    5.0060   -0.2021    0.0000 C   0  0  0  0  0  0  0  0  0  0  0  0
    5.0060    0.6229    0.0000 C   0  0  0  0  0  0  0  0  0  0  0  0
    6.4350   -0.2021    0.0000 C   0  0  0  0  0  0  0  0  0  0  0  0
    5.7205   -0.6146    0.0000 C   0  0  0  0  0  0  0  0  0  0  0  0
    6.4350    0.6229    0.0000 C   0  0  0  0  0  0  0  0  0  0  0  0
    5.7205    1.0354    0.0000 C   0  0  0  0  0  0  0  0  0  0  0  0
    4.2685    1.0640    0.0000 C   0  0  0  0  0  0  0  0  0  0  0  0
    3.5210    0.6400    0.0000 C   0  0  0  0  0  0  0  0  0  0  0  0
    7.6972    0.2104    0.0000 C   0  0  0  0  0  0  0  0  0  0  0  0
  1  8  1  0  0  0  0
  1 14  1  0  0  0  0
  2 10  1  0  0  0  0
  2 14  1  0  0  0  0
  3 12  2  0  0  0  0
  4  5  1  0  0  0  0
  4  6  1  0  0  0  0
  5 13  2  0  0  0  0
  6  7  1  0  0  0  0
  6  9  2  0  0  0  0
  7 11  2  0  0  0  0
  7 12  1  0  0  0  0
  8  9  1  0  0  0  0
  8 10  2  0  0  0  0
 10 11  1  0  0  0  0
 12 13  1  0  0  0  0
M  END
$$$$
CC1COCCN1
 OpenBabel07182308452D

  8  8  0  0  1  0  0  0  0  0999 V2000
    4.5080    0.4620    0.0000 O   0  0  0  0  0  0  0  0  0  0  0  0
    4.5080   -1.1880    0.0000 N   0  0  0  0  0  0  0  0  0  0  0  0
    3.7935   -0.7755    0.0000 C   0  0  3  0  0  0  0  0  0  0  0  0
    3.7935    0.0495    0.0000 C   0  0  0  0  0  0  0  0  0  0  0  0
    5.2224   -0.7755    0.0000 C   0  0  0  0  0  0  0  0  0  0  0  0
    5.2224    0.0495    0.0000 C   0  0  0  0  0  0  0  0  0  0  0  0
    3.0791   -1.1880    0.0000 C   0  0  0  0  0  0  0  0  0  0  0  0
    4.5080   -2.2080    0.0000 H   0  0  0  0  0  0  0  0  0  0  0  0
  1  4  1  0  0  0  0
  1  6  1  0  0  0  0
  2  3  1  0  0  0  0
  2  5  1  0  0  0  0
  2  8  1  0  0  0  0
  3  4  1  0  0  0  0
  3  7  1  0  0  0  0
  5  6  1  0  0  0  0
M  END
$$$$
CN1C(=O)CCC1=O
 OpenBabel07182308452D

  8  8  0  0  1  0  0  0  0  0999 V2000
    1.6500    0.4990    0.0000 O   0  0  0  0  0  0  0  0  0  0  0  0
    3.9995    2.2060    0.0000 O   0  0  0  0  0  0  0  0  0  0  0  0
    2.6896    1.5386    0.0000 N   0  0  0  0  0  0  0  0  0  0  0  0
    3.1021    0.2690    0.0000 C   0  0  0  0  0  0  0  0  0  0  0  0
    3.7695    0.7540    0.0000 C   0  0  0  0  0  0  0  0  0  0  0  0
    2.4347    0.7540    0.0000 C   0  0  0  0  0  0  0  0  0  0  0  0
    3.5146    1.5386    0.0000 C   0  0  0  0  0  0  0  0  0  0  0  0
    2.2047    2.2060    0.0000 C   0  0  0  0  0  0  0  0  0  0  0  0
  1  6  2  0  0  0  0
  2  7  2  0  0  0  0
  3  6  1  0  0  0  0
  3  7  1  0  0  0  0
  3  8  1  0  0  0  0
  4  5  1  0  0  0  0
  4  6  1  0  0  0  0
  5  7  1  0  0  0  0
M  END
$$$$
N[C@H]1[C@H]2SCC(=CN2C1=O)Cl
 OpenBabel07182308452D

 13 14  0  0  1  0  0  0  0  0999 V2000
   15.1257   -5.2681    0.0000 C   0  0  2  0  0  0  0  0  0  0  0  0
   15.1257   -6.0931    0.0000 N   0  0  0  0  0  0  0  0  0  0  0  0
   15.8401   -6.5056    0.0000 C   0  0  0  0  0  0  0  0  0  0  0  0
   16.5546   -6.0931    0.0000 C   0  0  0  0  0  0  0  0  0  0  0  0
   16.5546   -5.2681    0.0000 C   0  0  0  0  0  0  0  0  0  0  0  0
   15.8401   -4.8556    0.0000 S   0  0  0  0  0  0  0  0  0  0  0  0
   14.3007   -5.2681    0.0000 C   0  0  1  0  0  0  0  0  0  0  0  0
   14.3007   -6.0931    0.0000 C   0  0  0  0  0  0  0  0  0  0  0  0
   13.5861   -4.8556    0.0000 N   0  0  0  0  0  0  0  0  0  0  0  0
   13.5861   -6.5056    0.0000 O   0  0  0  0  0  0  0  0  0  0  0  0
   17.2802   -6.5122    0.0000 Cl  0  0  0  0  0  0  0  0  0  0  0  0
   15.1257   -4.4422    0.0000 H   0  0  0  0  0  0  0  0  0  0  0  0
   13.5861   -3.8711    0.0000 H   0  0  0  0  0  0  0  0  0  0  0  0
  1  2  1  0  0  0  0
  1  6  1  0  0  0  0
  1 12  1  6  0  0  0
  2  3  1  0  0  0  0
  2  8  1  0  0  0  0
  3  4  2  0  0  0  0
  4  5  1  0  0  0  0
  4 11  1  0  0  0  0
  5  6  1  0  0  0  0
  7  1  1  1  0  0  0
  7  8  1  0  0  0  0
  7  9  1  0  0  0  0
  8 10  2  0  0  0  0
  9 13  1  0  0  0  0
M  END
$$$$
CC#C[C@]1(O)CC[C@@H]2[C@]1(C)CCC1=C3CCC(=O)C=C3CC[C@@H]21
 OpenBabel07182308452D

 26 29  0  0  0  0  0  0  0  0999 V2000
   -1.8213   -0.8250    0.0000 C   0  0  0  0  0  0  0  0  0  0  0  0
   -1.1068   -1.2374    0.0000 C   0  0  0  0  0  0  0  0  0  0  0  0
    0.3220   -2.0625    0.0000 C   0  0  0  0  0  0  0  0  0  0  0  0
   -0.3923   -2.4749    0.0000 C   0  0  0  0  0  0  0  0  0  0  0  0
   -1.1068   -2.0625    0.0000 C   0  0  0  0  0  0  0  0  0  0  0  0
   -1.8213   -2.4749    0.0000 C   0  0  0  0  0  0  0  0  0  0  0  0
   -2.5357   -1.2374    0.0000 C   0  0  0  0  0  0  0  0  0  0  0  0
   -2.5357   -2.0625    0.0000 C   0  0  0  0  0  0  0  0  0  0  0  0
    0.3220   -1.2374    0.0000 C   0  0  2  0  0  0  0  0  0  0  0  0
   -0.3923   -0.8250    0.0000 C   0  0  0  0  0  0  0  0  0  0  0  0
    1.8212   -1.0799    0.0000 C   0  0  0  0  0  0  0  0  0  0  0  0
    1.8212    0.2549    0.0000 C   0  0  1  0  0  0  0  0  0  0  0  0
    0.3222    0.4125    0.0000 C   0  0  0  0  0  0  0  0  0  0  0  0
    2.3061   -0.4125    0.0000 C   0  0  0  0  0  0  0  0  0  0  0  0
   -0.3923    0.0000    0.0000 C   0  0  0  0  0  0  0  0  0  0  0  0
   -3.2502   -2.4749    0.0000 O   0  0  0  0  0  0  0  0  0  0  0  0
    0.3221   -0.4125    0.0000 H   0  0  0  0  0  0  0  0  0  0  0  0
    1.0365    0.0000    0.0000 C   0  0  2  0  0  0  0  0  0  0  0  0
    1.0366    0.8249    0.0000 C   0  0  0  0  0  0  0  0  0  0  0  0
    1.0365   -0.8251    0.0000 C   0  0  2  0  0  0  0  0  0  0  0  0
    1.0365   -1.6501    0.0000 H   0  0  0  0  0  0  0  0  0  0  0  0
    1.8212    1.0799    0.0000 O   0  0  0  0  0  0  0  0  0  0  0  0
    2.5357    0.6674    0.0000 C   0  0  0  0  0  0  0  0  0  0  0  0
    3.2501    1.0799    0.0000 C   0  0  0  0  0  0  0  0  0  0  0  0
    3.9646    1.4924    0.0000 C   0  0  0  0  0  0  0  0  0  0  0  0
    2.6612    1.5649    0.0000 H   0  0  0  0  0  0  0  0  0  0  0  0
  1  7  1  0  0  0  0
  2  1  1  0  0  0  0
  2  5  1  0  0  0  0
  3  4  1  0  0  0  0
  4  5  1  0  0  0  0
  5  6  2  0  0  0  0
  6  8  1  0  0  0  0
  7  8  1  0  0  0  0
  8 16  2  0  0  0  0
  9  3  1  0  0  0  0
  9 20  1  6  0  0  0
  9 17  1  0  0  0  0
 10  9  1  0  0  0  0
 10  2  2  0  0  0  0
 10 15  1  0  0  0  0
 12 18  1  6  0  0  0
 12 14  1  0  0  0  0
 12 22  1  0  0  0  0
 12 23  1  0  0  0  0
 13 15  1  0  0  0  0
 14 11  1  0  0  0  0
 18 13  1  0  0  0  0
 18 20  1  1  0  0  0
 18 19  1  0  0  0  0
 20 11  1  0  0  0  0
 20 21  1  6  0  0  0
 22 26  1  0  0  0  0
 23 24  3  0  0  0  0
 24 25  1  0  0  0  0
M  END
$$$$
CCc1ccccc1
 OpenBabel07182308452D

  8  8  0  0  0  0  0  0  0  0999 V2000
    4.1251   -1.2228    0.0000 C   0  0  0  0  0  0  0  0  0  0  0  0
    4.1251   -2.0478    0.0000 C   0  0  0  0  0  0  0  0  0  0  0  0
    4.1251   -2.8728    0.0000 C   0  0  0  0  0  0  0  0  0  0  0  0
    4.8396   -3.2853    0.0000 C   0  0  0  0  0  0  0  0  0  0  0  0
    3.4106   -3.2853    0.0000 C   0  0  0  0  0  0  0  0  0  0  0  0
    4.8396   -4.1103    0.0000 C   0  0  0  0  0  0  0  0  0  0  0  0
    3.4106   -4.1103    0.0000 C   0  0  0  0  0  0  0  0  0  0  0  0
    4.1251   -4.5228    0.0000 C   0  0  0  0  0  0  0  0  0  0  0  0
  1  2  1  0  0  0  0
  2  3  1  0  0  0  0
  3  4  2  0  0  0  0
  3  5  1  0  0  0  0
  4  6  1  0  0  0  0
  5  7  2  0  0  0  0
  6  8  2  0  0  0  0
  7  8  1  0  0  0  0
M  END
$$$$
C[C@@H]1C[C@@H]2[C@](C1)(C)C[C@@H]([C@]1([C@H]2C[C@H](F)C2=CC(=O)C=C[C@]12C)Cl)O
 OpenBabel07182308452D

 27 30  0  0  1  0  0  0  0  0999 V2000
    5.7755   -5.7759    0.0000 C   0  0  0  0  0  0  0  0  0  0  0  0
    5.7755   -6.5707    0.0000 C   0  0  0  0  0  0  0  0  0  0  0  0
    6.4868   -6.9891    0.0000 C   0  0  0  0  0  0  0  0  0  0  0  0
    7.1981   -6.5707    0.0000 C   0  0  0  0  0  0  0  0  0  0  0  0
    7.1981   -5.7759    0.0000 C   0  0  2  0  0  0  0  0  0  0  0  0
    6.4868   -5.3575    0.0000 C   0  0  0  0  0  0  0  0  0  0  0  0
    7.9092   -6.9891    0.0000 C   0  0  2  0  0  0  0  0  0  0  0  0
    8.5786   -6.5707    0.0000 C   0  0  0  0  0  0  0  0  0  0  0  0
    8.5786   -5.7759    0.0000 C   0  0  2  0  0  0  0  0  0  0  0  0
    7.9092   -5.3575    0.0000 C   0  0  2  0  0  0  0  0  0  0  0  0
    9.2898   -5.3575    0.0000 C   0  0  1  0  0  0  0  0  0  0  0  0
    9.2898   -4.5626    0.0000 C   0  0  1  0  0  0  0  0  0  0  0  0
    8.5786   -4.1443    0.0000 C   0  0  0  0  0  0  0  0  0  0  0  0
    7.9092   -4.5626    0.0000 C   0  0  2  0  0  0  0  0  0  0  0  0
    7.9092   -7.8258    0.0000 F   0  0  0  0  0  0  0  0  0  0  0  0
    7.9092   -6.1942    0.0000 Cl  0  0  0  0  0  0  0  0  0  0  0  0
    9.2898   -6.1942    0.0000 H   0  0  0  0  0  0  0  0  0  0  0  0
    9.2480   -3.7260    0.0000 C   0  0  0  0  0  0  0  0  0  0  0  0
    7.1981   -4.9810    0.0000 C   0  0  0  0  0  0  0  0  0  0  0  0
    5.0644   -6.9891    0.0000 O   0  0  0  0  0  0  0  0  0  0  0  0
    7.1981   -4.1443    0.0000 O   0  0  0  0  0  0  0  0  0  0  0  0
    8.5786   -4.9810    0.0000 H   0  0  0  0  0  0  0  0  0  0  0  0
   10.0458   -4.3170    0.0000 C   0  0  0  0  0  0  0  0  0  0  0  0
   10.5129   -4.9601    0.0000 C   0  0  1  0  0  0  0  0  0  0  0  0
   10.0459   -5.6032    0.0000 C   0  0  0  0  0  0  0  0  0  0  0  0
   11.3381   -4.9600    0.0000 C   0  0  0  0  0  0  0  0  0  0  0  0
    7.2060   -3.1743    0.0000 H   0  0  0  0  0  0  0  0  0  0  0  0
  1  2  1  0  0  0  0
  1  6  2  0  0  0  0
  2  3  1  0  0  0  0
  2 20  2  0  0  0  0
  3  4  2  0  0  0  0
  4  5  1  0  0  0  0
  4  7  1  0  0  0  0
  5  6  1  0  0  0  0
  5 10  1  6  0  0  0
  5 19  1  0  0  0  0
  7  8  1  0  0  0  0
  7 15  1  6  0  0  0
  8  9  1  0  0  0  0
  9 10  1  6  0  0  0
  9 22  1  0  0  0  0
 10 16  1  6  0  0  0
 11  9  1  1  0  0  0
 11 17  1  0  0  0  0
 12 13  1  0  0  0  0
 12 18  1  0  0  0  0
 12 11  1  1  0  0  0
 13 14  1  0  0  0  0
 14 10  1  1  0  0  0
 14 21  1  0  0  0  0
 21 27  1  0  0  0  0
 23 12  1  0  0  0  0
 24 23  1  0  0  0  0
 24 26  1  6  0  0  0
 25 11  1  0  0  0  0
 25 24  1  0  0  0  0
M  END
$$$$
NN1CCCCCC1
 OpenBabel07182308452D

  9  9  0  0  0  0  0  0  0  0999 V2000
    5.9370    1.1589    0.0000 N   0  0  0  0  0  0  0  0  0  0  0  0
    5.9370    0.3339    0.0000 N   0  0  0  0  0  0  0  0  0  0  0  0
    5.5245    2.9662    0.0000 C   0  0  0  0  0  0  0  0  0  0  0  0
    6.3495    2.9662    0.0000 C   0  0  0  0  0  0  0  0  0  0  0  0
    5.0101    2.3212    0.0000 C   0  0  0  0  0  0  0  0  0  0  0  0
    6.8638    2.3212    0.0000 C   0  0  0  0  0  0  0  0  0  0  0  0
    5.1937    1.5169    0.0000 C   0  0  0  0  0  0  0  0  0  0  0  0
    6.6803    1.5169    0.0000 C   0  0  0  0  0  0  0  0  0  0  0  0
    6.7896   -0.1584    0.0000 H   0  0  0  0  0  0  0  0  0  0  0  0
  1  2  1  0  0  0  0
  1  7  1  0  0  0  0
  1  8  1  0  0  0  0
  2  9  1  0  0  0  0
  3  4  1  0  0  0  0
  3  5  1  0  0  0  0
  4  6  1  0  0  0  0
  5  7  1  0  0  0  0
  6  8  1  0  0  0  0
M  END
$$$$
CC1CCN(CC1)C
 OpenBabel07182308452D

  8  8  0  0  1  0  0  0  0  0999 V2000
    7.1182   -1.1823    0.0000 N   0  0  0  0  0  0  0  0  0  0  0  0
    6.2932    0.2467    0.0000 C   0  0  0  0  0  0  0  0  0  0  0  0
    5.8806    0.9612    0.0000 C   0  0  0  0  0  0  0  0  0  0  0  0
    7.1182    0.2467    0.0000 C   0  0  0  0  0  0  0  0  0  0  0  0
    5.8806   -0.4678    0.0000 C   0  0  0  0  0  0  0  0  0  0  0  0
    7.5307   -0.4678    0.0000 C   0  0  0  0  0  0  0  0  0  0  0  0
    6.2932   -1.1823    0.0000 C   0  0  0  0  0  0  0  0  0  0  0  0
    7.5307   -1.8967    0.0000 C   0  0  0  0  0  0  0  0  0  0  0  0
  1  6  1  0  0  0  0
  1  7  1  0  0  0  0
  1  8  1  0  0  0  0
  2  3  1  0  0  0  0
  2  4  1  0  0  0  0
  2  5  1  0  0  0  0
  4  6  1  0  0  0  0
  5  7  1  0  0  0  0
M  END
$$$$
O=C1CCc2c1cccc2
 OpenBabel07182308452D

 10 11  0  0  1  0  0  0  0  0999 V2000
    4.8305    2.4093    0.0000 O   0  0  0  0  0  0  0  0  0  0  0  0
    5.0556    0.9612    0.0000 C   0  0  0  0  0  0  0  0  0  0  0  0
    4.5741    0.2973    0.0000 C   0  0  0  0  0  0  0  0  0  0  0  0
    4.5741    1.6251    0.0000 C   0  0  0  0  0  0  0  0  0  0  0  0
    3.7935    0.5487    0.0000 C   0  0  0  0  0  0  0  0  0  0  0  0
    3.7935    1.3737    0.0000 C   0  0  0  0  0  0  0  0  0  0  0  0
    3.0791    0.1362    0.0000 C   0  0  0  0  0  0  0  0  0  0  0  0
    3.0791    1.7862    0.0000 C   0  0  0  0  0  0  0  0  0  0  0  0
    2.3645    0.5487    0.0000 C   0  0  0  0  0  0  0  0  0  0  0  0
    2.3645    1.3737    0.0000 C   0  0  0  0  0  0  0  0  0  0  0  0
  1  4  2  0  0  0  0
  2  3  1  0  0  0  0
  2  4  1  0  0  0  0
  3  5  1  0  0  0  0
  4  6  1  0  0  0  0
  5  6  1  0  0  0  0
  5  7  2  0  0  0  0
  6  8  2  0  0  0  0
  7  9  1  0  0  0  0
  8 10  1  0  0  0  0
  9 10  2  0  0  0  0
M  END
$$$$
O[C@H]1CC[C@@]2([C@@]34[C@H]1Oc1c4c(C[C@H]2N(CC3)C)ccc1O)O
 OpenBabel07182308452D

 25 29  0  0  0  0  0  0  0  0999 V2000
    0.0000    0.8250    0.0000 C   0  0  0  0  0  0  0  0  0  0  0  0
   -0.7145    0.4125    0.0000 C   0  0  0  0  0  0  0  0  0  0  0  0
   -0.7144    2.0625    0.0000 C   0  0  0  0  0  0  0  0  0  0  0  0
   -1.4289    1.6501    0.0000 C   0  0  0  0  0  0  0  0  0  0  0  0
   -1.4289    0.8250    0.0000 C   0  0  0  0  0  0  0  0  0  0  0  0
    0.0000    1.6500    0.0000 C   0  0  0  0  0  0  0  0  0  0  0  0
   -1.4289   -0.8250    0.0000 C   0  0  1  0  0  0  0  0  0  0  0  0
   -1.4289   -1.6501    0.0000 C   0  0  2  0  0  0  0  0  0  0  0  0
   -0.7144   -2.0625    0.0000 C   0  0  0  0  0  0  0  0  0  0  0  0
    0.0000   -1.6500    0.0000 C   0  0  0  0  0  0  0  0  0  0  0  0
    0.7145   -0.4125    0.0000 C   0  0  1  0  0  0  0  0  0  0  0  0
    1.4290   -0.8250    0.0000 N   0  0  0  0  0  0  0  0  0  0  0  0
    0.0000   -0.8250    0.0000 C   0  0  2  0  0  0  0  0  0  0  0  0
    0.7145   -1.2375    0.0000 O   0  0  0  0  0  0  0  0  0  0  0  0
    0.7144    0.4125    0.0000 C   0  0  0  0  0  0  0  0  0  0  0  0
   -0.7145   -0.4125    0.0000 C   0  0  1  0  0  0  0  0  0  0  0  0
    0.0000    0.0000    0.0000 C   0  0  0  0  0  0  0  0  0  0  0  0
    1.4435    0.0000    0.0000 C   0  0  0  0  0  0  0  0  0  0  0  0
   -2.1434   -2.0626    0.0000 O   0  0  0  0  0  0  0  0  0  0  0  0
   -1.9621    0.0410    0.0000 O   0  0  0  0  0  0  0  0  0  0  0  0
   -2.1434    2.0626    0.0000 O   0  0  0  0  0  0  0  0  0  0  0  0
    2.2540   -0.8250    0.0000 C   0  0  0  0  0  0  0  0  0  0  0  0
    0.7145   -2.2075    0.0000 H   0  0  0  0  0  0  0  0  0  0  0  0
   -2.9834   -1.5776    0.0000 H   0  0  0  0  0  0  0  0  0  0  0  0
   -2.1434    2.9996    0.0000 H   0  0  0  0  0  0  0  0  0  0  0  0
  1  6  2  0  0  0  0
  2 16  1  0  0  0  0
  2  1  1  0  0  0  0
  3  4  2  0  0  0  0
  3  6  1  0  0  0  0
  4  5  1  0  0  0  0
  4 21  1  0  0  0  0
  5  2  2  0  0  0  0
  5 20  1  0  0  0  0
  7 16  1  6  0  0  0
  7  8  1  0  0  0  0
  7 20  1  0  0  0  0
  8  9  1  0  0  0  0
  8 19  1  6  0  0  0
  9 10  1  0  0  0  0
 10 13  1  0  0  0  0
 11 13  1  1  0  0  0
 11 12  1  0  0  0  0
 11 15  1  0  0  0  0
 12 18  1  0  0  0  0
 12 22  1  0  0  0  0
 13 16  1  1  0  0  0
 13 14  1  0  0  0  0
 14 23  1  0  0  0  0
 15  1  1  0  0  0  0
 16 17  1  1  0  0  0
 17 18  1  0  0  0  0
 19 24  1  0  0  0  0
 21 25  1  0  0  0  0
M  END
$$$$
N=c1cc2[nH]c3ccccc3nc2cc1N
 OpenBabel07182308452D

 17 19  0  0  0  0  0  0  0  0999 V2000
    5.9083   -7.7517    0.0000 C   0  0  0  0  0  0  0  0  0  0  0  0
    5.1986   -7.3311    0.0000 N   0  0  0  0  0  0  0  0  0  0  0  0
    5.9083   -8.5666    0.0000 C   0  0  0  0  0  0  0  0  0  0  0  0
    6.6443   -7.3311    0.0000 C   0  0  0  0  0  0  0  0  0  0  0  0
    5.1986   -8.9872    0.0000 N   0  0  0  0  0  0  0  0  0  0  0  0
    7.3277   -8.5666    0.0000 C   0  0  0  0  0  0  0  0  0  0  0  0
    7.3277   -7.7517    0.0000 C   0  0  0  0  0  0  0  0  0  0  0  0
    6.6443   -8.9872    0.0000 C   0  0  0  0  0  0  0  0  0  0  0  0
    4.4625   -7.7517    0.0000 C   0  0  0  0  0  0  0  0  0  0  0  0
    4.4625   -8.5666    0.0000 C   0  0  0  0  0  0  0  0  0  0  0  0
    8.0638   -7.3311    0.0000 N   0  0  0  0  0  0  0  0  0  0  0  0
    8.0638   -8.9872    0.0000 N   0  0  0  0  0  0  0  0  0  0  0  0
    3.7790   -7.3311    0.0000 C   0  0  0  0  0  0  0  0  0  0  0  0
    3.7790   -8.9872    0.0000 C   0  0  0  0  0  0  0  0  0  0  0  0
    3.0430   -7.7517    0.0000 C   0  0  0  0  0  0  0  0  0  0  0  0
    3.0430   -8.5666    0.0000 C   0  0  0  0  0  0  0  0  0  0  0  0
    8.0716   -9.9717    0.0000 H   0  0  0  0  0  0  0  0  0  0  0  0
  2  1  1  0  0  0  0
  3  1  1  0  0  0  0
  4  1  2  0  0  0  0
  5  3  2  0  0  0  0
  7  4  1  0  0  0  0
  7  6  1  0  0  0  0
  8  3  1  0  0  0  0
  8  6  2  0  0  0  0
  9  2  1  0  0  0  0
 10  5  1  0  0  0  0
 10  9  2  0  0  0  0
 11  7  2  0  0  0  0
 12  6  1  0  0  0  0
 12 17  1  0  0  0  0
 13  9  1  0  0  0  0
 14 10  1  0  0  0  0
 15 13  2  0  0  0  0
 16 14  2  0  0  0  0
 16 15  1  0  0  0  0
M  END
$$$$
O=C1CC[C@]2(C(=C1)[C@@H](F)C[C@@H]1[C@@H]2[C@@H](O)C[C@]2([C@H]1C[C@@H]1C2OC(O1)(C)C)C)C
 OpenBabel07182308452D

 28 32  0  0  0  0  0  0  0  0999 V2000
   -0.8723   -2.8854    0.0000 F   0  0  0  0  0  0  0  0  0  0  0  0
    2.1324    1.2302    0.0000 O   0  0  0  0  0  0  0  0  0  0  0  0
    2.8929    0.3951    0.0000 O   0  0  0  0  0  0  0  0  0  0  0  0
   -1.5656    0.8425    0.0000 O   0  0  0  0  0  0  0  0  0  0  0  0
   -3.7279   -2.0578    0.0000 O   0  0  0  0  0  0  0  0  0  0  0  0
    0.5667   -0.4175    0.0000 C   0  0  2  0  0  0  0  0  0  0  0  0
    0.5741    0.4026    0.0000 C   0  0  1  0  0  0  0  0  0  0  0  0
   -0.1491   -0.8201    0.0000 C   0  0  1  0  0  0  0  0  0  0  0  0
    1.2899    0.8127    0.0000 C   0  0  3  0  0  0  0  0  0  0  0  0
   -0.8648   -0.4026    0.0000 C   0  0  1  0  0  0  0  0  0  0  0  0
    1.9982    0.3876    0.0000 C   0  0  1  0  0  0  0  0  0  0  0  0
   -1.5807   -0.8127    0.0000 C   0  0  2  0  0  0  0  0  0  0  0  0
    1.9908   -0.4324    0.0000 C   0  0  0  0  0  0  0  0  0  0  0  0
   -0.8574    0.4175    0.0000 C   0  0  2  0  0  0  0  0  0  0  0  0
   -0.1415    0.8275    0.0000 C   0  0  0  0  0  0  0  0  0  0  0  0
   -0.1491   -1.6478    0.0000 C   0  0  0  0  0  0  0  0  0  0  0  0
   -1.5807   -1.6403    0.0000 C   0  0  0  0  0  0  0  0  0  0  0  0
    2.9302    1.2302    0.0000 C   0  0  0  0  0  0  0  0  0  0  0  0
    0.5517    1.2749    0.0000 C   0  0  0  0  0  0  0  0  0  0  0  0
   -0.8723   -2.0578    0.0000 C   0  0  1  0  0  0  0  0  0  0  0  0
   -2.2964   -0.4026    0.0000 C   0  0  0  0  0  0  0  0  0  0  0  0
   -1.5807   -0.0671    0.0000 C   0  0  0  0  0  0  0  0  0  0  0  0
   -2.2964   -2.0578    0.0000 C   0  0  0  0  0  0  0  0  0  0  0  0
   -3.0122   -0.8127    0.0000 C   0  0  0  0  0  0  0  0  0  0  0  0
    2.8929    1.9459    0.0000 C   0  0  0  0  0  0  0  0  0  0  0  0
    3.7279    1.2302    0.0000 C   0  0  0  0  0  0  0  0  0  0  0  0
   -3.0122   -1.6403    0.0000 C   0  0  0  0  0  0  0  0  0  0  0  0
   -1.5492    1.8124    0.0000 H   0  0  0  0  0  0  0  0  0  0  0  0
  2  9  1  0  0  0  0
  2 18  1  0  0  0  0
  3 11  1  0  0  0  0
  3 18  1  0  0  0  0
  4 28  1  0  0  0  0
  5 27  2  0  0  0  0
  6  7  1  1  0  0  0
  6  8  1  0  0  0  0
  6 13  1  0  0  0  0
  7  9  1  0  0  0  0
  7 15  1  0  0  0  0
  7 19  1  1  0  0  0
  8 10  1  0  0  0  0
  8 16  1  6  0  0  0
  9 11  1  0  0  0  0
 10 12  1  1  0  0  0
 10 14  1  0  0  0  0
 11 13  1  6  0  0  0
 12 17  1  0  0  0  0
 12 21  1  0  0  0  0
 12 22  1  1  0  0  0
 14  4  1  1  0  0  0
 14 15  1  0  0  0  0
 16 20  1  0  0  0  0
 17 20  1  0  0  0  0
 17 23  2  0  0  0  0
 18 25  1  0  0  0  0
 18 26  1  0  0  0  0
 20  1  1  6  0  0  0
 21 24  1  0  0  0  0
 23 27  1  0  0  0  0
 24 27  1  0  0  0  0
M  END
$$$$
C1CN2C(=NCC2)S1
 OpenBabel07182308452D

  8  9  0  0  1  0  0  0  0  0999 V2000
    6.1753   -0.6639    0.0000 S   0  0  0  0  0  0  0  0  0  0  0  0
    5.3946    0.4125    0.0000 N   0  0  0  0  0  0  0  0  0  0  0  0
    4.6100   -0.6674    0.0000 N   0  0  0  0  0  0  0  0  0  0  0  0
    4.6100    0.6674    0.0000 C   0  0  0  0  0  0  0  0  0  0  0  0
    4.1251    0.0000    0.0000 C   0  0  0  0  0  0  0  0  0  0  0  0
    6.1753    0.6639    0.0000 C   0  0  0  0  0  0  0  0  0  0  0  0
    5.3946   -0.4125    0.0000 C   0  0  0  0  0  0  0  0  0  0  0  0
    6.6568    0.0000    0.0000 C   0  0  0  0  0  0  0  0  0  0  0  0
  1  7  1  0  0  0  0
  1  8  1  0  0  0  0
  2  4  1  0  0  0  0
  2  6  1  0  0  0  0
  2  7  1  0  0  0  0
  3  5  1  0  0  0  0
  3  7  2  0  0  0  0
  4  5  1  0  0  0  0
  6  8  1  0  0  0  0
M  END
$$$$
O=C1CC(=O)N(C(=O)N1)C
 OpenBabel07182308452D

 11 11  0  0  1  0  0  0  0  0999 V2000
    1.6500    0.1658    0.0000 O   0  0  0  0  0  0  0  0  0  0  0  0
    4.5080    0.1658    0.0000 O   0  0  0  0  0  0  0  0  0  0  0  0
    3.0791   -2.3092    0.0000 O   0  0  0  0  0  0  0  0  0  0  0  0
    2.3645   -1.0717    0.0000 N   0  0  0  0  0  0  0  0  0  0  0  0
    3.7935   -1.0717    0.0000 N   0  0  0  0  0  0  0  0  0  0  0  0
    3.0791    0.1658    0.0000 C   0  0  0  0  0  0  0  0  0  0  0  0
    2.3645   -0.2467    0.0000 C   0  0  0  0  0  0  0  0  0  0  0  0
    3.7935   -0.2467    0.0000 C   0  0  0  0  0  0  0  0  0  0  0  0
    3.0791   -1.4842    0.0000 C   0  0  0  0  0  0  0  0  0  0  0  0
    1.6500   -1.4842    0.0000 C   0  0  0  0  0  0  0  0  0  0  0  0
    4.6461   -1.5639    0.0000 H   0  0  0  0  0  0  0  0  0  0  0  0
  1  7  2  0  0  0  0
  2  8  2  0  0  0  0
  3  9  2  0  0  0  0
  4  7  1  0  0  0  0
  4  9  1  0  0  0  0
  4 10  1  0  0  0  0
  5  8  1  0  0  0  0
  5  9  1  0  0  0  0
  5 11  1  0  0  0  0
  6  7  1  0  0  0  0
  6  8  1  0  0  0  0
M  END
$$$$
Cn1nnc2n(c1=O)cnc2
 OpenBabel07182308452D

 11 12  0  0  0  0  0  0  0  0999 V2000
    3.0791    1.8772    0.0000 O   0  0  0  0  0  0  0  0  0  0  0  0
    3.7935    0.6397    0.0000 N   0  0  0  0  0  0  0  0  0  0  0  0
    2.3645    0.6397    0.0000 N   0  0  0  0  0  0  0  0  0  0  0  0
    5.0556    0.2272    0.0000 N   0  0  0  0  0  0  0  0  0  0  0  0
    3.0791   -0.5978    0.0000 N   0  0  0  0  0  0  0  0  0  0  0  0
    2.3645   -0.1853    0.0000 N   0  0  0  0  0  0  0  0  0  0  0  0
    3.7935   -0.1853    0.0000 C   0  0  0  0  0  0  0  0  0  0  0  0
    4.5741   -0.4367    0.0000 C   0  0  0  0  0  0  0  0  0  0  0  0
    3.0791    1.0522    0.0000 C   0  0  0  0  0  0  0  0  0  0  0  0
    4.5741    0.8911    0.0000 C   0  0  0  0  0  0  0  0  0  0  0  0
    1.6500    1.0522    0.0000 C   0  0  0  0  0  0  0  0  0  0  0  0
  1  9  2  0  0  0  0
  2  7  1  0  0  0  0
  2  9  1  0  0  0  0
  2 10  1  0  0  0  0
  3  6  1  0  0  0  0
  3  9  1  0  0  0  0
  3 11  1  0  0  0  0
  4  8  1  0  0  0  0
  4 10  2  0  0  0  0
  5  6  2  0  0  0  0
  5  7  1  0  0  0  0
  7  8  2  0  0  0  0
M  END
$$$$
Cc1cccc2c1cccc2
 OpenBabel07182308452D

 11 12  0  0  0  0  0  0  0  0999 V2000
    0.3325   -1.0295    0.0000 C   0  0  0  0  0  0  0  0  0  0  0  0
    0.3325   -1.8546    0.0000 C   0  0  0  0  0  0  0  0  0  0  0  0
    1.0472   -2.2669    0.0000 C   0  0  0  0  0  0  0  0  0  0  0  0
    1.7616   -1.8546    0.0000 C   0  0  0  0  0  0  0  0  0  0  0  0
    1.7616   -1.0295    0.0000 C   0  0  0  0  0  0  0  0  0  0  0  0
    1.0472   -0.6170    0.0000 C   0  0  0  0  0  0  0  0  0  0  0  0
    2.4761   -2.2669    0.0000 C   0  0  0  0  0  0  0  0  0  0  0  0
    3.1906   -1.8546    0.0000 C   0  0  0  0  0  0  0  0  0  0  0  0
    3.1906   -1.0295    0.0000 C   0  0  0  0  0  0  0  0  0  0  0  0
    2.4761   -0.6170    0.0000 C   0  0  0  0  0  0  0  0  0  0  0  0
    2.4761    0.2079    0.0000 C   0  0  0  0  0  0  0  0  0  0  0  0
  1  2  2  0  0  0  0
  1  6  1  0  0  0  0
  2  3  1  0  0  0  0
  3  4  2  0  0  0  0
  4  5  1  0  0  0  0
  4  7  1  0  0  0  0
  5  6  2  0  0  0  0
  5 10  1  0  0  0  0
  7  8  2  0  0  0  0
  8  9  1  0  0  0  0
  9 10  2  0  0  0  0
 10 11  1  0  0  0  0
M  END
$$$$
C=CC#CC(C)(C)C
 OpenBabel07182308452D

  8  7  0  0  0  0  0  0  0  0999 V2000
    0.3560    0.6178    0.0000 C   0  0  0  0  0  0  0  0  0  0  0  0
   -0.3461    0.2123    0.0000 C   0  0  0  0  0  0  0  0  0  0  0  0
   -1.0470    0.6168    0.0000 C   0  0  0  0  0  0  0  0  0  0  0  0
   -1.7616    1.0294    0.0000 C   0  0  0  0  0  0  0  0  0  0  0  0
   -2.4759    1.4419    0.0000 C   0  0  0  0  0  0  0  0  0  0  0  0
   -3.1906    1.8545    0.0000 C   0  0  0  0  0  0  0  0  0  0  0  0
   -2.4759    2.2669    0.0000 C   0  0  0  0  0  0  0  0  0  0  0  0
   -3.1905    1.0295    0.0000 C   0  0  0  0  0  0  0  0  0  0  0  0
  1  2  2  0  0  0  0
  2  3  1  0  0  0  0
  3  4  3  0  0  0  0
  4  5  1  0  0  0  0
  5  6  1  0  0  0  0
  5  7  1  0  0  0  0
  5  8  1  0  0  0  0
M  END
$$$$
CC(S)C
 OpenBabel07182308452D

  5  4  0  0  0  0  0  0  0  0999 V2000
    0.8250   -0.8250    0.0000 C   0  0  0  0  0  0  0  0  0  0  0  0
    1.6500   -0.0000    0.0000 C   0  0  0  0  0  0  0  0  0  0  0  0
    0.8250    0.0000    0.0000 C   0  0  0  0  0  0  0  0  0  0  0  0
    0.0000    0.0000    0.0000 S   0  0  0  0  0  0  0  0  0  0  0  0
   -0.6800    1.1778    0.0000 H   0  0  0  0  0  0  0  0  0  0  0  0
  3  1  1  0  0  0  0
  3  2  1  0  0  0  0
  4  3  1  0  0  0  0
  4  5  1  0  0  0  0
M  END
$$$$
O=C1C=C[C@]2(C(=C1)CC[C@@H]1[C@@H]2[C@@H](O)C[C@]2([C@H]1CC[C@H]2O)C)C
 OpenBabel07182308452D

 27 30  0  0  0  0  0  0  0  0999 V2000
    2.1785   -1.0012    0.0000 C   0  0  0  0  0  0  0  0  0  0  0  0
    0.6794   -1.9838    0.0000 C   0  0  0  0  0  0  0  0  0  0  0  0
    2.1785    0.3336    0.0000 C   0  0  2  0  0  0  0  0  0  0  0  0
    0.6794    0.4911    0.0000 C   0  0  0  0  0  0  0  0  0  0  0  0
    2.6635   -0.3338    0.0000 C   0  0  0  0  0  0  0  0  0  0  0  0
   -0.7495   -1.1588    0.0000 C   0  0  2  0  0  0  0  0  0  0  0  0
   -0.0350    0.0786    0.0000 C   0  0  1  0  0  0  0  0  0  0  0  0
   -0.0350   -2.3962    0.0000 C   0  0  0  0  0  0  0  0  0  0  0  0
   -0.7495   -1.9838    0.0000 C   0  0  0  0  0  0  0  0  0  0  0  0
   -1.4640   -0.7463    0.0000 C   0  0  0  0  0  0  0  0  0  0  0  0
   -1.4640   -2.3962    0.0000 C   0  0  0  0  0  0  0  0  0  0  0  0
   -2.1783   -1.1588    0.0000 C   0  0  0  0  0  0  0  0  0  0  0  0
    0.6794   -1.1588    0.0000 C   0  0  2  0  0  0  0  0  0  0  0  0
    0.6794   -0.3338    0.0000 H   0  0  0  0  0  0  0  0  0  0  0  0
   -0.0350   -0.7463    0.0000 C   0  0  1  0  0  0  0  0  0  0  0  0
   -0.0350   -1.5712    0.0000 H   0  0  0  0  0  0  0  0  0  0  0  0
    1.3938    0.0786    0.0000 C   0  0  2  0  0  0  0  0  0  0  0  0
    1.3938    0.9036    0.0000 C   0  0  0  0  0  0  0  0  0  0  0  0
    1.3938   -0.7463    0.0000 C   0  0  1  0  0  0  0  0  0  0  0  0
    1.3938   -1.5712    0.0000 H   0  0  0  0  0  0  0  0  0  0  0  0
   -2.8929   -2.3962    0.0000 O   0  0  0  0  0  0  0  0  0  0  0  0
   -2.1783   -1.9838    0.0000 C   0  0  0  0  0  0  0  0  0  0  0  0
   -0.7495   -0.3338    0.0000 C   0  0  0  0  0  0  0  0  0  0  0  0
    2.8929    0.7461    0.0000 O   0  0  0  0  0  0  0  0  0  0  0  0
   -0.7495    0.4911    0.0000 O   0  0  0  0  0  0  0  0  0  0  0  0
    3.7330    0.2611    0.0000 H   0  0  0  0  0  0  0  0  0  0  0  0
   -0.7495    1.4611    0.0000 H   0  0  0  0  0  0  0  0  0  0  0  0
  2  8  1  0  0  0  0
  3 17  1  6  0  0  0
  3  5  1  0  0  0  0
  3 24  1  0  0  0  0
  4  7  1  0  0  0  0
  5  1  1  0  0  0  0
  6 15  1  6  0  0  0
  6  9  1  0  0  0  0
  6 10  1  0  0  0  0
  6 23  1  0  0  0  0
  7 15  1  1  0  0  0
  7 25  1  0  0  0  0
  8  9  1  0  0  0  0
  9 11  2  0  0  0  0
 10 12  2  0  0  0  0
 11 22  1  0  0  0  0
 12 22  1  0  0  0  0
 13 19  1  6  0  0  0
 13  2  1  0  0  0  0
 13 14  1  0  0  0  0
 15 13  1  1  0  0  0
 15 16  1  0  0  0  0
 17 19  1  1  0  0  0
 17  4  1  0  0  0  0
 17 18  1  0  0  0  0
 19  1  1  0  0  0  0
 19 20  1  6  0  0  0
 22 21  2  0  0  0  0
 24 26  1  0  0  0  0
 25 27  1  0  0  0  0
M  END
$$$$
Cc1nc(c2n1[nH]cnc2=O)C
 OpenBabel07182308452D

 13 14  0  0  0  0  0  0  0  0999 V2000
    8.7949   -2.4751    0.0000 O   0  0  0  0  0  0  0  0  0  0  0  0
    9.5094   -0.4125    0.0000 N   0  0  0  0  0  0  0  0  0  0  0  0
    8.7949    0.0000    0.0000 N   0  0  0  0  0  0  0  0  0  0  0  0
    8.0804   -1.2375    0.0000 N   0  0  0  0  0  0  0  0  0  0  0  0
   10.7715   -0.8250    0.0000 N   0  0  0  0  0  0  0  0  0  0  0  0
    8.0804   -0.4125    0.0000 C   0  0  0  0  0  0  0  0  0  0  0  0
   10.2900   -0.1611    0.0000 C   0  0  0  0  0  0  0  0  0  0  0  0
    9.5094   -1.2375    0.0000 C   0  0  0  0  0  0  0  0  0  0  0  0
   10.5464    0.6231    0.0000 C   0  0  0  0  0  0  0  0  0  0  0  0
   10.2900   -1.4889    0.0000 C   0  0  0  0  0  0  0  0  0  0  0  0
    8.7949   -1.6500    0.0000 C   0  0  0  0  0  0  0  0  0  0  0  0
   10.5464   -2.2732    0.0000 C   0  0  0  0  0  0  0  0  0  0  0  0
    8.7949    0.9845    0.0000 H   0  0  0  0  0  0  0  0  0  0  0  0
  1 11  2  0  0  0  0
  2  3  1  0  0  0  0
  2  7  1  0  0  0  0
  2  8  1  0  0  0  0
  3  6  1  0  0  0  0
  3 13  1  0  0  0  0
  4  6  2  0  0  0  0
  4 11  1  0  0  0  0
  5  7  2  0  0  0  0
  5 10  1  0  0  0  0
  7  9  1  0  0  0  0
  8 10  2  0  0  0  0
  8 11  1  0  0  0  0
 10 12  1  0  0  0  0
M  END
$$$$
NC=C
 OpenBabel07182308452D

  4  3  0  0  0  0  0  0  0  0999 V2000
    3.1409    0.0070    0.0000 C   0  0  0  0  0  0  0  0  0  0  0  0
    3.1409    0.7597    0.0000 C   0  0  0  0  0  0  0  0  0  0  0  0
    2.4071    1.1716    0.0000 N   0  0  0  0  0  0  0  0  0  0  0  0
    2.3913    2.1560    0.0000 H   0  0  0  0  0  0  0  0  0  0  0  0
  2  1  2  0  0  0  0
  3  2  1  0  0  0  0
  3  4  1  0  0  0  0
M  END
$$$$
Cc1ccc(o1)C
 OpenBabel07182308452D

  7  7  0  0  0  0  0  0  0  0999 V2000
   -2.4120    0.7361    0.0000 C   0  0  0  0  0  0  0  0  0  0  0  0
   -1.7586    1.1716    0.0000 O   0  0  0  0  0  0  0  0  0  0  0  0
   -1.0722    0.7361    0.0000 C   0  0  0  0  0  0  0  0  0  0  0  0
   -2.1562   -0.0639    0.0000 C   0  0  0  0  0  0  0  0  0  0  0  0
   -1.3278   -0.0639    0.0000 C   0  0  0  0  0  0  0  0  0  0  0  0
   -3.1220    1.1716    0.0000 C   0  0  0  0  0  0  0  0  0  0  0  0
   -0.3763    1.1716    0.0000 C   0  0  0  0  0  0  0  0  0  0  0  0
  1  2  1  0  0  0  0
  2  3  1  0  0  0  0
  3  7  1  0  0  0  0
  4  5  1  0  0  0  0
  4  1  2  0  0  0  0
  5  3  2  0  0  0  0
  6  1  1  0  0  0  0
M  END
$$$$
OC1CCCCC1
 OpenBabel07182308452D

  8  8  0  0  1  0  0  0  0  0999 V2000
   11.1658   -6.4995    0.0000 C   0  0  0  0  0  0  0  0  0  0  0  0
   11.1658   -5.6662    0.0000 C   0  0  0  0  0  0  0  0  0  0  0  0
   10.4158   -5.2497    0.0000 C   0  0  0  0  0  0  0  0  0  0  0  0
    9.7076   -5.6662    0.0000 C   0  0  0  0  0  0  0  0  0  0  0  0
    9.7076   -6.4995    0.0000 C   0  0  0  0  0  0  0  0  0  0  0  0
   10.4158   -6.9162    0.0000 C   0  0  0  0  0  0  0  0  0  0  0  0
    8.9993   -5.2497    0.0000 O   0  0  0  0  0  0  0  0  0  0  0  0
    9.0070   -4.2797    0.0000 H   0  0  0  0  0  0  0  0  0  0  0  0
  1  2  1  0  0  0  0
  1  6  1  0  0  0  0
  2  3  1  0  0  0  0
  3  4  1  0  0  0  0
  4  5  1  0  0  0  0
  4  7  1  0  0  0  0
  5  6  1  0  0  0  0
  7  8  1  0  0  0  0
M  END
$$$$
C[C@@H]1CC[C@@H]2CC[C@H]([C@](O2)(O)C(=O)C(=O)N2CCCC[C@H]2C(=O)OC[C@@H]([C@H](CC(=O)[C@@H](/C=C(/C1)\C)C)O)C)C
 OpenBabel07182308452D

 41 43  0  0  1  0  0  0  0  0999 V2000
   12.5824   -8.1661    0.0000 C   0  0  0  0  0  0  0  0  0  0  0  0
   13.2907   -7.7494    0.0000 C   0  0  1  0  0  0  0  0  0  0  0  0
   13.9989   -8.1661    0.0000 C   0  0  2  0  0  0  0  0  0  0  0  0
   13.9989   -8.9993    0.0000 C   0  0  0  0  0  0  0  0  0  0  0  0
   14.7906   -9.3326    0.0000 C   0  0  0  0  0  0  0  0  0  0  0  0
   15.1654  -10.1243    0.0000 C   0  0  1  0  0  0  0  0  0  0  0  0
   14.7490  -10.8742    0.0000 C   0  0  0  0  0  0  0  0  0  0  0  0
   13.9989  -11.2908    0.0000 C   0  0  0  0  0  0  0  0  0  0  0  0
   13.2907  -10.8742    0.0000 C   0  0  0  0  0  0  0  0  0  0  0  0
   13.9989  -12.1240    0.0000 C   0  0  0  0  0  0  0  0  0  0  0  0
   13.2907  -12.5407    0.0000 C   0  0  2  0  0  0  0  0  0  0  0  0
   12.5824  -12.1240    0.0000 C   0  0  0  0  0  0  0  0  0  0  0  0
   13.7072  -13.2491    0.0000 C   0  0  0  0  0  0  0  0  0  0  0  0
   13.1241  -13.8739    0.0000 C   0  0  0  0  0  0  0  0  0  0  0  0
   12.3324  -13.6656    0.0000 C   0  0  2  0  0  0  0  0  0  0  0  0
   11.7492  -14.2489    0.0000 C   0  0  0  0  0  0  0  0  0  0  0  0
   10.9575  -14.0406    0.0000 C   0  0  0  0  0  0  0  0  0  0  0  0
   10.7491  -13.2491    0.0000 C   0  0  2  0  0  0  0  0  0  0  0  0
   11.3325  -12.6657    0.0000 C   0  0  2  0  0  0  0  0  0  0  0  0
   12.1240  -12.8741    0.0000 O   0  0  0  0  0  0  0  0  0  0  0  0
   12.0407  -12.2907    0.0000 O   0  0  0  0  0  0  0  0  0  0  0  0
   10.9158  -11.9573    0.0000 C   0  0  0  0  0  0  0  0  0  0  0  0
   11.3325  -11.2075    0.0000 C   0  0  0  0  0  0  0  0  0  0  0  0
   10.9158  -10.4991    0.0000 N   0  0  0  0  0  0  0  0  0  0  0  0
   10.0826  -10.4991    0.0000 C   0  0  0  0  0  0  0  0  0  0  0  0
   11.3325   -9.7910    0.0000 C   0  0  1  0  0  0  0  0  0  0  0  0
   10.9158   -9.0409    0.0000 C   0  0  0  0  0  0  0  0  0  0  0  0
   10.0826   -9.0409    0.0000 C   0  0  0  0  0  0  0  0  0  0  0  0
    9.6660   -9.7493    0.0000 C   0  0  0  0  0  0  0  0  0  0  0  0
   12.1656  -11.1973    0.0000 O   0  0  0  0  0  0  0  0  0  0  0  0
   10.0827  -11.9676    0.0000 O   0  0  0  0  0  0  0  0  0  0  0  0
    9.9448  -13.0316    0.0000 C   0  0  0  0  0  0  0  0  0  0  0  0
   12.1657   -9.7910    0.0000 C   0  0  0  0  0  0  0  0  0  0  0  0
   12.5824  -10.5125    0.0000 O   0  0  0  0  0  0  0  0  0  0  0  0
   12.5824   -9.0693    0.0000 O   0  0  0  0  0  0  0  0  0  0  0  0
   13.2907   -6.9162    0.0000 C   0  0  0  0  0  0  0  0  0  0  0  0
   14.7223   -7.7523    0.0000 O   0  0  0  0  0  0  0  0  0  0  0  0
   15.4083   -8.8972    0.0000 O   0  0  0  0  0  0  0  0  0  0  0  0
   15.9984  -10.1513    0.0000 C   0  0  0  0  0  0  0  0  0  0  0  0
   12.8624  -12.8061    0.0000 H   0  0  0  0  0  0  0  0  0  0  0  0
   15.5604   -8.2407    0.0000 H   0  0  0  0  0  0  0  0  0  0  0  0
  1  2  1  0  0  0  0
  1 35  1  0  0  0  0
  2  3  1  0  0  0  0
  2 36  1  6  0  0  0
  3  4  1  0  0  0  0
  3 37  1  1  0  0  0
  4  5  1  0  0  0  0
  5  6  1  0  0  0  0
  5 38  2  0  0  0  0
  6  7  1  0  0  0  0
  6 39  1  6  0  0  0
  7  8  2  0  0  0  0
  8  9  1  0  0  0  0
  8 10  1  0  0  0  0
 10 11  1  0  0  0  0
 11 12  1  1  0  0  0
 11 13  1  0  0  0  0
 13 14  1  0  0  0  0
 15 14  1  6  0  0  0
 15 16  1  0  0  0  0
 15 20  1  0  0  0  0
 16 17  1  0  0  0  0
 17 18  1  0  0  0  0
 18 19  1  1  0  0  0
 18 32  1  0  0  0  0
 19 20  1  0  0  0  0
 19 21  1  1  0  0  0
 19 22  1  0  0  0  0
 21 40  1  0  0  0  0
 22 23  1  0  0  0  0
 22 31  2  0  0  0  0
 23 24  1  0  0  0  0
 23 30  2  0  0  0  0
 25 24  1  0  0  0  0
 25 29  1  0  0  0  0
 26 24  1  0  0  0  0
 26 27  1  1  0  0  0
 26 33  1  0  0  0  0
 27 28  1  0  0  0  0
 28 29  1  0  0  0  0
 33 34  2  0  0  0  0
 33 35  1  0  0  0  0
 37 41  1  0  0  0  0
M  END
$$$$
N[C@H]1C[C@H](C)S(=O)(=O)c2c1ccs2
 OpenBabel07182308452D

 14 15  0  0  1  0  0  0  0  0999 V2000
   16.8537   -6.8636    0.0000 C   0  0  0  0  0  0  0  0  0  0  0  0
   16.8537   -6.0579    0.0000 C   0  0  0  0  0  0  0  0  0  0  0  0
   16.1375   -7.2933    0.0000 S   0  0  0  0  0  0  0  0  0  0  0  0
   17.6415   -7.1322    0.0000 S   0  0  0  0  0  0  0  0  0  0  0  0
   16.1375   -5.6460    0.0000 C   0  0  2  0  0  0  0  0  0  0  0  0
   17.6415   -5.7893    0.0000 C   0  0  0  0  0  0  0  0  0  0  0  0
   15.4213   -6.8636    0.0000 C   0  0  2  0  0  0  0  0  0  0  0  0
   15.7257   -7.9916    0.0000 O   0  0  0  0  0  0  0  0  0  0  0  0
   16.5135   -7.9916    0.0000 O   0  0  0  0  0  0  0  0  0  0  0  0
   18.1071   -6.4697    0.0000 C   0  0  0  0  0  0  0  0  0  0  0  0
   15.4213   -6.0579    0.0000 C   0  0  0  0  0  0  0  0  0  0  0  0
   16.1375   -4.8045    0.0000 N   0  0  0  0  0  0  0  0  0  0  0  0
   14.7230   -7.2933    0.0000 C   0  0  0  0  0  0  0  0  0  0  0  0
   17.0181   -4.2897    0.0000 H   0  0  0  0  0  0  0  0  0  0  0  0
  2  1  2  0  0  0  0
  3  1  1  0  0  0  0
  4  1  1  0  0  0  0
  5  2  1  0  0  0  0
  5 12  1  6  0  0  0
  6  2  1  0  0  0  0
  7  3  1  0  0  0  0
  7 13  1  1  0  0  0
  8  3  2  0  0  0  0
  9  3  2  0  0  0  0
 10  4  1  0  0  0  0
 10  6  2  0  0  0  0
 11  5  1  0  0  0  0
 11  7  1  0  0  0  0
 12 14  1  0  0  0  0
M  END
$$$$
Cc1nc2c([nH]1)CCNc1c2cccc1
 OpenBabel07182308452D

 16 18  0  0  0  0  0  0  0  0999 V2000
    3.6160   -1.4980    0.0000 N   0  0  0  0  0  0  0  0  0  0  0  0
    5.3370   -3.5416    0.0000 N   0  0  0  0  0  0  0  0  0  0  0  0
    4.1407   -4.1177    0.0000 N   0  0  0  0  0  0  0  0  0  0  0  0
    4.9554   -2.1430    0.0000 C   0  0  0  0  0  0  0  0  0  0  0  0
    4.4410   -1.4980    0.0000 C   0  0  0  0  0  0  0  0  0  0  0  0
    4.7718   -2.9473    0.0000 C   0  0  0  0  0  0  0  0  0  0  0  0
    4.0285   -3.3053    0.0000 C   0  0  0  0  0  0  0  0  0  0  0  0
    3.1016   -2.1430    0.0000 C   0  0  0  0  0  0  0  0  0  0  0  0
    3.2852   -2.9473    0.0000 C   0  0  0  0  0  0  0  0  0  0  0  0
    4.9478   -4.2635    0.0000 C   0  0  0  0  0  0  0  0  0  0  0  0
    2.2844   -1.8771    0.0000 C   0  0  0  0  0  0  0  0  0  0  0  0
    2.6644   -3.5415    0.0000 C   0  0  0  0  0  0  0  0  0  0  0  0
    1.6500   -2.4567    0.0000 C   0  0  0  0  0  0  0  0  0  0  0  0
    1.8412   -3.2946    0.0000 C   0  0  0  0  0  0  0  0  0  0  0  0
    5.3057   -5.0068    0.0000 C   0  0  0  0  0  0  0  0  0  0  0  0
    6.3128   -3.4111    0.0000 H   0  0  0  0  0  0  0  0  0  0  0  0
  1  5  1  0  0  0  0
  1  8  1  0  0  0  0
  2  6  1  0  0  0  0
  2 10  1  0  0  0  0
  2 16  1  0  0  0  0
  3  7  1  0  0  0  0
  3 10  2  0  0  0  0
  4  5  1  0  0  0  0
  4  6  1  0  0  0  0
  6  7  2  0  0  0  0
  7  9  1  0  0  0  0
  8  9  1  0  0  0  0
  8 11  2  0  0  0  0
  9 12  2  0  0  0  0
 10 15  1  0  0  0  0
 11 13  1  0  0  0  0
 12 14  1  0  0  0  0
 13 14  2  0  0  0  0
M  END
$$$$
CC=C1c2ccccc2Sc2c1cccc2
 OpenBabel07182308452D

 17 19  0  0  0  0  0  0  0  0999 V2000
    3.5724    1.2375    0.0000 C   0  0  0  0  0  0  0  0  0  0  0  0
    3.5724    2.0625    0.0000 C   0  0  0  0  0  0  0  0  0  0  0  0
    0.7145   -0.4125    0.0000 C   0  0  0  0  0  0  0  0  0  0  0  0
    2.8579    0.8250    0.0000 C   0  0  0  0  0  0  0  0  0  0  0  0
    1.4289   -0.0000    0.0000 C   0  0  0  0  0  0  0  0  0  0  0  0
    2.8579    2.4750    0.0000 C   0  0  0  0  0  0  0  0  0  0  0  0
   -0.7145    2.0625    0.0000 C   0  0  0  0  0  0  0  0  0  0  0  0
    0.0000    2.4750    0.0000 C   0  0  0  0  0  0  0  0  0  0  0  0
   -0.0000    0.8250    0.0000 C   0  0  0  0  0  0  0  0  0  0  0  0
   -0.7145    1.2375    0.0000 C   0  0  0  0  0  0  0  0  0  0  0  0
    1.4289    0.8250    0.0000 C   0  0  0  0  0  0  0  0  0  0  0  0
    2.1434    1.2375    0.0000 C   0  0  0  0  0  0  0  0  0  0  0  0
    0.7145    1.2375    0.0000 C   0  0  0  0  0  0  0  0  0  0  0  0
    2.1434    2.0625    0.0000 C   0  0  0  0  0  0  0  0  0  0  0  0
    0.7145    2.0625    0.0000 C   0  0  0  0  0  0  0  0  0  0  0  0
    1.4289    2.4750    0.0000 S   0  0  0  0  0  0  0  0  0  0  0  0
    2.1434   -0.4125    0.0000 H   0  0  0  0  0  0  0  0  0  0  0  0
  2  1  2  0  0  0  0
  4  1  1  0  0  0  0
  5  3  1  0  0  0  0
  6  2  1  0  0  0  0
  8  7  2  0  0  0  0
 10  7  1  0  0  0  0
 10  9  2  0  0  0  0
 11  5  2  0  0  0  0
 12  4  2  0  0  0  0
 12 11  1  0  0  0  0
 13  9  1  0  0  0  0
 13 11  1  0  0  0  0
 14  6  2  0  0  0  0
 14 12  1  0  0  0  0
 15  8  1  0  0  0  0
 15 13  2  0  0  0  0
 16 14  1  0  0  0  0
 16 15  1  0  0  0  0
 17  5  1  0  0  0  0
M  END
$$$$
Cn1ccnc1C
 OpenBabel07182308452D

  7  7  0  0  0  0  0  0  0  0999 V2000
   -0.7145   -0.4125    0.0000 N   0  0  0  0  0  0  0  0  0  0  0  0
    0.0000   -0.8250    0.0000 C   0  0  0  0  0  0  0  0  0  0  0  0
   -0.7145    0.4125    0.0000 C   0  0  0  0  0  0  0  0  0  0  0  0
   -1.4989    0.6674    0.0000 C   0  0  0  0  0  0  0  0  0  0  0  0
   -1.9839    0.0001    0.0000 N   0  0  0  0  0  0  0  0  0  0  0  0
   -1.4991   -0.6674    0.0000 C   0  0  0  0  0  0  0  0  0  0  0  0
   -1.7541   -1.4520    0.0000 C   0  0  0  0  0  0  0  0  0  0  0  0
  1  6  1  0  0  0  0
  1  2  1  0  0  0  0
  1  3  1  0  0  0  0
  3  4  2  0  0  0  0
  4  5  1  0  0  0  0
  6  5  2  0  0  0  0
  6  7  1  0  0  0  0
M  END
$$$$
C[C@@H]1/C=C/C=C/C=C(\C)/CC[C@@H]2CC[C@H]([C@](O2)(O)C(=O)C(=O)N2[C@H](C(=O)OCCC(=O)[C@@H](/C=C(/[C@H](CC(=O)[C@@H](C1)C)O)\C)C)CCCC2)C
 OpenBabel07182308452D

 54 56  0  0  0  0  0  0  0  0999 V2000
   -2.1439    4.2946    0.0000 C   0  0  0  0  0  0  0  0  0  0  0  0
   -2.1439    3.4697    0.0000 C   0  0  2  0  0  0  0  0  0  0  0  0
   -2.8583    4.7072    0.0000 C   0  0  0  0  0  0  0  0  0  0  0  0
   -2.8583    3.0571    0.0000 N   0  0  0  0  0  0  0  0  0  0  0  0
   -3.5729    4.2946    0.0000 C   0  0  0  0  0  0  0  0  0  0  0  0
   -3.5729    3.4697    0.0000 C   0  0  0  0  0  0  0  0  0  0  0  0
   -1.4291    3.0571    0.0000 C   0  0  0  0  0  0  0  0  0  0  0  0
   -1.4291    2.2321    0.0000 O   0  0  0  0  0  0  0  0  0  0  0  0
   -2.1439    1.8195    0.0000 O   0  0  0  0  0  0  0  0  0  0  0  0
   -2.8582    2.2321    0.0000 C   0  0  0  0  0  0  0  0  0  0  0  0
   -3.5728    1.8194    0.0000 C   0  0  0  0  0  0  0  0  0  0  0  0
   -4.2871    2.2319    0.0000 O   0  0  0  0  0  0  0  0  0  0  0  0
    0.0000    3.0571    0.0000 C   0  0  0  0  0  0  0  0  0  0  0  0
    0.0000    2.2321    0.0000 C   0  0  0  0  0  0  0  0  0  0  0  0
   -0.7148    3.4697    0.0000 O   0  0  0  0  0  0  0  0  0  0  0  0
    1.4288    2.2321    0.0000 O   0  0  0  0  0  0  0  0  0  0  0  0
    0.7144    1.8195    0.0000 C   0  0  0  0  0  0  0  0  0  0  0  0
   -2.8583    0.5820    0.0000 O   0  0  0  0  0  0  0  0  0  0  0  0
   -3.5728    0.9946    0.0000 C   0  0  2  0  0  0  0  0  0  0  0  0
   -2.8583   -0.2428    0.0000 C   0  0  1  0  0  0  0  0  0  0  0  0
   -3.5729   -0.6551    0.0000 C   0  0  0  0  0  0  0  0  0  0  0  0
   -4.2871    0.5821    0.0000 C   0  0  1  0  0  0  0  0  0  0  0  0
   -4.2873   -0.2426    0.0000 C   0  0  0  0  0  0  0  0  0  0  0  0
   -2.1439   -0.6553    0.0000 C   0  0  0  0  0  0  0  0  0  0  0  0
   -2.1439   -1.4805    0.0000 C   0  0  0  0  0  0  0  0  0  0  0  0
   -0.7148   -1.4805    0.0000 C   0  0  0  0  0  0  0  0  0  0  0  0
   -1.4294   -1.8930    0.0000 C   0  0  0  0  0  0  0  0  0  0  0  0
   -1.4294   -2.7180    0.0000 C   0  0  0  0  0  0  0  0  0  0  0  0
   -0.0011    3.9919    0.0000 H   0  0  0  0  0  0  0  0  0  0  0  0
   -5.0016    0.9948    0.0000 C   0  0  0  0  0  0  0  0  0  0  0  0
    0.7144    0.9944    0.0000 C   0  0  2  0  0  0  0  0  0  0  0  0
   -0.0002    0.5820    0.0000 C   0  0  0  0  0  0  0  0  0  0  0  0
    1.4288    0.5818    0.0000 C   0  0  0  0  0  0  0  0  0  0  0  0
    1.4288   -0.2431    0.0000 C   0  0  0  0  0  0  0  0  0  0  0  0
    0.7144   -0.6556    0.0000 C   0  0  0  0  0  0  0  0  0  0  0  0
    2.1434   -0.6556    0.0000 C   0  0  2  0  0  0  0  0  0  0  0  0
    2.1434   -1.4807    0.0000 C   0  0  0  0  0  0  0  0  0  0  0  0
    2.8580   -0.2431    0.0000 O   0  0  0  0  0  0  0  0  0  0  0  0
    2.8579   -1.8931    0.0000 C   0  0  0  0  0  0  0  0  0  0  0  0
   -2.1934    0.2209    0.0000 H   0  0  0  0  0  0  0  0  0  0  0  0
   -0.7211   -3.1504    0.0000 C   0  0  0  0  0  0  0  0  0  0  0  0
   -0.7211   -4.1090    0.0000 C   0  0  0  0  0  0  0  0  0  0  0  0
    2.8579   -2.7182    0.0000 C   0  0  1  0  0  0  0  0  0  0  0  0
    2.1198   -3.1149    0.0000 C   0  0  0  0  0  0  0  0  0  0  0  0
    3.5724   -1.4807    0.0000 O   0  0  0  0  0  0  0  0  0  0  0  0
   -0.0609   -4.4784    0.0000 C   0  0  0  0  0  0  0  0  0  0  0  0
    0.6540   -3.9833    0.0000 C   0  0  0  0  0  0  0  0  0  0  0  0
    1.5631   -3.9833    0.0000 C   0  0  1  0  0  0  0  0  0  0  0  0
    3.5772   -3.1032    0.0000 C   0  0  0  0  0  0  0  0  0  0  0  0
   -2.1433    2.6249    0.0000 H   0  0  0  0  0  0  0  0  0  0  0  0
   -2.9085    1.4050    0.0000 O   0  0  0  0  0  0  0  0  0  0  0  0
    1.9590   -4.7073    0.0000 C   0  0  0  0  0  0  0  0  0  0  0  0
    3.6980   -0.7282    0.0000 H   0  0  0  0  0  0  0  0  0  0  0  0
   -2.0544    0.9452    0.0000 H   0  0  0  0  0  0  0  0  0  0  0  0
  2  1  1  0  0  0  0
  2  7  1  0  0  0  0
  2 50  1  6  0  0  0
  3  1  1  0  0  0  0
  4  2  1  0  0  0  0
  5  3  1  0  0  0  0
  6  5  1  0  0  0  0
  6  4  1  0  0  0  0
  7 15  1  0  0  0  0
  8  7  2  0  0  0  0
 10  4  1  0  0  0  0
 10  9  2  0  0  0  0
 11 10  1  0  0  0  0
 12 11  2  0  0  0  0
 13 29  1  0  0  0  0
 14 13  1  0  0  0  0
 14 17  1  0  0  0  0
 15 13  1  0  0  0  0
 17 16  2  0  0  0  0
 19 11  1  0  0  0  0
 19 18  1  0  0  0  0
 19 51  1  1  0  0  0
 20 18  1  0  0  0  0
 20 24  1  0  0  0  0
 20 40  1  1  0  0  0
 21 20  1  0  0  0  0
 22 19  1  1  0  0  0
 22 30  1  0  0  0  0
 23 21  1  0  0  0  0
 23 22  1  0  0  0  0
 25 24  1  0  0  0  0
 25 27  1  0  0  0  0
 27 26  1  0  0  0  0
 28 27  2  0  0  0  0
 31 17  1  0  0  0  0
 31 33  1  0  0  0  0
 31 32  1  1  0  0  0
 34 33  2  0  0  0  0
 34 36  1  0  0  0  0
 35 34  1  0  0  0  0
 36 38  1  1  0  0  0
 37 36  1  0  0  0  0
 37 39  1  0  0  0  0
 38 53  1  0  0  0  0
 41 28  1  0  0  0  0
 42 41  2  0  0  0  0
 43 39  1  0  0  0  0
 43 49  1  6  0  0  0
 44 43  1  0  0  0  0
 44 48  1  0  0  0  0
 45 39  2  0  0  0  0
 46 42  1  0  0  0  0
 47 46  2  0  0  0  0
 48 47  1  0  0  0  0
 48 52  1  6  0  0  0
 51 54  1  0  0  0  0
M  END
$$$$
C[C@@H]1CC[C@H](CC1)O
 OpenBabel07182308452D

 10 10  0  0  0  0  0  0  0  0999 V2000
    1.4288    3.0571    0.0000 C   0  0  0  0  0  0  0  0  0  0  0  0
    2.1435    4.2946    0.0000 C   0  0  0  0  0  0  0  0  0  0  0  0
    2.1435    3.4697    0.0000 C   0  0  2  0  0  0  0  0  0  0  0  0
    3.5727    4.2946    0.0000 C   0  0  1  0  0  0  0  0  0  0  0  0
    3.5727    3.4697    0.0000 C   0  0  0  0  0  0  0  0  0  0  0  0
    2.8580    4.7072    0.0000 C   0  0  0  0  0  0  0  0  0  0  0  0
    2.8580    3.0571    0.0000 C   0  0  0  0  0  0  0  0  0  0  0  0
    2.1548    2.6720    0.0000 H   0  0  0  0  0  0  0  0  0  0  0  0
    4.2870    4.7072    0.0000 O   0  0  0  0  0  0  0  0  0  0  0  0
    5.1271    4.2224    0.0000 H   0  0  0  0  0  0  0  0  0  0  0  0
  1  3  1  0  0  0  0
  2  6  1  0  0  0  0
  3  7  1  0  0  0  0
  3  2  1  0  0  0  0
  3  8  1  1  0  0  0
  4  9  1  1  0  0  0
  5  4  1  0  0  0  0
  6  4  1  0  0  0  0
  7  5  1  0  0  0  0
  9 10  1  0  0  0  0
M  END
$$$$
N=c1nc(O)[nH]cc1F
 OpenBabel07182308452D

 11 11  0  0  1  0  0  0  0  0999 V2000
    0.7144    0.9328    0.0000 C   0  0  0  0  0  0  0  0  0  0  0  0
    0.7144    1.7578    0.0000 C   0  0  0  0  0  0  0  0  0  0  0  0
    0.0000    2.1703    0.0000 C   0  0  0  0  0  0  0  0  0  0  0  0
   -0.7144    0.9328    0.0000 C   0  0  0  0  0  0  0  0  0  0  0  0
    1.4289    2.1703    0.0000 F   0  0  0  0  0  0  0  0  0  0  0  0
    0.0000    2.9953    0.0000 N   0  0  0  0  0  0  0  0  0  0  0  0
   -0.7144    1.7578    0.0000 N   0  0  0  0  0  0  0  0  0  0  0  0
    0.0000    0.5203    0.0000 N   0  0  0  0  0  0  0  0  0  0  0  0
   -1.4289    0.5203    0.0000 O   0  0  0  0  0  0  0  0  0  0  0  0
    0.8526    3.4875    0.0000 H   0  0  0  0  0  0  0  0  0  0  0  0
   -2.2404    0.9888    0.0000 H   0  0  0  0  0  0  0  0  0  0  0  0
  2  1  2  0  0  0  0
  3  2  1  0  0  0  0
  5  2  1  0  0  0  0
  6  3  2  0  0  0  0
  6 10  1  0  0  0  0
  7  3  1  0  0  0  0
  7  4  2  0  0  0  0
  8  1  1  0  0  0  0
  8  4  1  0  0  0  0
  9  4  1  0  0  0  0
  9 11  1  0  0  0  0
M  END
$$$$
Clc1ccc2c(c1)NC=NS2(=O)=O
 OpenBabel07182308452D

 14 15  0  0  0  0  0  0  0  0999 V2000
    2.8075    1.0170    0.0000 Cl  0  0  0  0  0  0  0  0  0  0  0  0
    5.6885   -0.6617    0.0000 S   0  0  0  0  0  0  0  0  0  0  0  0
    6.0927   -1.3808    0.0000 O   0  0  0  0  0  0  0  0  0  0  0  0
    5.2677   -1.3713    0.0000 O   0  0  0  0  0  0  0  0  0  0  0  0
    5.6885    1.0456    0.0000 N   0  0  0  0  0  0  0  0  0  0  0  0
    6.4360   -0.2377    0.0000 N   0  0  0  0  0  0  0  0  0  0  0  0
    4.9509   -0.2205    0.0000 C   0  0  0  0  0  0  0  0  0  0  0  0
    4.9509    0.6045    0.0000 C   0  0  0  0  0  0  0  0  0  0  0  0
    3.5220   -0.2205    0.0000 C   0  0  0  0  0  0  0  0  0  0  0  0
    4.2365   -0.6330    0.0000 C   0  0  0  0  0  0  0  0  0  0  0  0
    4.2365    1.0170    0.0000 C   0  0  0  0  0  0  0  0  0  0  0  0
    3.5220    0.6045    0.0000 C   0  0  0  0  0  0  0  0  0  0  0  0
    6.4360    0.6217    0.0000 C   0  0  0  0  0  0  0  0  0  0  0  0
    5.6771    2.0300    0.0000 H   0  0  0  0  0  0  0  0  0  0  0  0
  1 12  1  0  0  0  0
  2  3  2  0  0  0  0
  2  4  2  0  0  0  0
  2  6  1  0  0  0  0
  2  7  1  0  0  0  0
  5  8  1  0  0  0  0
  5 13  1  0  0  0  0
  5 14  1  0  0  0  0
  6 13  2  0  0  0  0
  7  8  1  0  0  0  0
  7 10  2  0  0  0  0
  8 11  2  0  0  0  0
  9 10  1  0  0  0  0
  9 12  2  0  0  0  0
 11 12  1  0  0  0  0
M  END
$$$$
O[C@@H]1CO[C@H]2[C@@H]1OC[C@@H]2O
 OpenBabel07182308452D

 12 13  0  0  0  0  0  0  0  0999 V2000
   -1.2074    0.3923    0.0000 C   0  0  0  0  0  0  0  0  0  0  0  0
    1.2074   -0.3922    0.0000 C   0  0  0  0  0  0  0  0  0  0  0  0
   -0.5399    0.8772    0.0000 O   0  0  0  0  0  0  0  0  0  0  0  0
    0.5399   -0.8772    0.0000 O   0  0  0  0  0  0  0  0  0  0  0  0
    0.9524    0.3923    0.0000 C   0  0  1  0  0  0  0  0  0  0  0  0
   -0.9524   -0.3922    0.0000 C   0  0  2  0  0  0  0  0  0  0  0  0
    0.1274    0.3923    0.0000 C   0  0  2  0  0  0  0  0  0  0  0  0
   -0.1274   -0.3922    0.0000 C   0  0  2  0  0  0  0  0  0  0  0  0
    0.1274    1.2173    0.0000 H   0  0  0  0  0  0  0  0  0  0  0  0
   -0.1274   -1.2173    0.0000 H   0  0  0  0  0  0  0  0  0  0  0  0
   -1.5358   -0.9756    0.0000 O   0  0  0  0  0  0  0  0  0  0  0  0
    1.5358    0.9757    0.0000 O   0  0  0  0  0  0  0  0  0  0  0  0
  1  6  1  0  0  0  0
  2  5  1  0  0  0  0
  3  1  1  0  0  0  0
  3  7  1  0  0  0  0
  4  8  1  0  0  0  0
  4  2  1  0  0  0  0
  5  7  1  1  0  0  0
  5 12  1  0  0  0  0
  6  8  1  6  0  0  0
  6 11  1  0  0  0  0
  7  8  1  1  0  0  0
  7  9  1  0  0  0  0
  8 10  1  1  0  0  0
M  END
$$$$
Cc1cccn2c1nccc2=O
 OpenBabel07182308452D

 12 13  0  0  0  0  0  0  0  0999 V2000
    4.3846   -1.3471    0.0000 O   0  0  0  0  0  0  0  0  0  0  0  0
    5.0992   -0.1096    0.0000 N   0  0  0  0  0  0  0  0  0  0  0  0
    4.3846    1.1279    0.0000 N   0  0  0  0  0  0  0  0  0  0  0  0
    5.0992    0.7154    0.0000 C   0  0  0  0  0  0  0  0  0  0  0  0
    5.8366    1.1565    0.0000 C   0  0  0  0  0  0  0  0  0  0  0  0
    4.3846   -0.5221    0.0000 C   0  0  0  0  0  0  0  0  0  0  0  0
    3.6702   -0.1096    0.0000 C   0  0  0  0  0  0  0  0  0  0  0  0
    5.8366   -0.5507    0.0000 C   0  0  0  0  0  0  0  0  0  0  0  0
    6.5842    0.7325    0.0000 C   0  0  0  0  0  0  0  0  0  0  0  0
    3.6702    0.7154    0.0000 C   0  0  0  0  0  0  0  0  0  0  0  0
    6.5842   -0.1268    0.0000 C   0  0  0  0  0  0  0  0  0  0  0  0
    5.8271    1.9814    0.0000 C   0  0  0  0  0  0  0  0  0  0  0  0
  1  6  2  0  0  0  0
  2  4  1  0  0  0  0
  2  6  1  0  0  0  0
  2  8  1  0  0  0  0
  3  4  2  0  0  0  0
  3 10  1  0  0  0  0
  4  5  1  0  0  0  0
  5  9  2  0  0  0  0
  5 12  1  0  0  0  0
  6  7  1  0  0  0  0
  7 10  2  0  0  0  0
  8 11  2  0  0  0  0
  9 11  1  0  0  0  0
M  END
$$$$
Cn1ncc2c1cccc2
 OpenBabel07182308452D

 10 11  0  0  0  0  0  0  0  0999 V2000
   -0.3894   -0.9339    0.0000 C   0  0  0  0  0  0  0  0  0  0  0  0
    0.0616   -1.5616    0.0000 N   0  0  0  0  0  0  0  0  0  0  0  0
   -0.3894   -2.1893    0.0000 N   0  0  0  0  0  0  0  0  0  0  0  0
   -1.1544   -1.1693    0.0000 C   0  0  0  0  0  0  0  0  0  0  0  0
   -1.1544   -1.9539    0.0000 C   0  0  0  0  0  0  0  0  0  0  0  0
   -0.1344   -2.9543    0.0000 C   0  0  0  0  0  0  0  0  0  0  0  0
   -1.8213   -0.7770    0.0000 C   0  0  0  0  0  0  0  0  0  0  0  0
   -1.8213   -2.3659    0.0000 C   0  0  0  0  0  0  0  0  0  0  0  0
   -2.5078   -1.1693    0.0000 C   0  0  0  0  0  0  0  0  0  0  0  0
   -2.5078   -1.9539    0.0000 C   0  0  0  0  0  0  0  0  0  0  0  0
  2  1  2  0  0  0  0
  3  2  1  0  0  0  0
  4  1  1  0  0  0  0
  5  3  1  0  0  0  0
  5  4  2  0  0  0  0
  6  3  1  0  0  0  0
  7  4  1  0  0  0  0
  8  5  1  0  0  0  0
  9  7  2  0  0  0  0
 10  8  2  0  0  0  0
 10  9  1  0  0  0  0
M  END
$$$$
CN1[C@@H]2CCC[C@H]1CCC2
 OpenBabel07182308452D

 10 11  0  0  0  0  0  0  0  0999 V2000
    0.9838    0.7966    0.0000 C   0  0  0  0  0  0  0  0  0  0  0  0
    0.3512    1.4272    0.0000 C   0  0  0  0  0  0  0  0  0  0  0  0
    1.8770    0.7977    0.0000 C   0  0  0  0  0  0  0  0  0  0  0  0
    2.5078    1.4302    0.0000 C   0  0  1  0  0  0  0  0  0  0  0  0
    0.3500    2.3205    0.0000 C   0  0  2  0  0  0  0  0  0  0  0  0
    2.5066    2.3235    0.0000 C   0  0  0  0  0  0  0  0  0  0  0  0
    0.9808    2.9531    0.0000 C   0  0  0  0  0  0  0  0  0  0  0  0
    1.8741    2.9543    0.0000 C   0  0  0  0  0  0  0  0  0  0  0  0
    1.5365    2.2472    0.0000 N   0  0  0  0  0  0  0  0  0  0  0  0
    1.2869    1.4795    0.0000 C   0  0  0  0  0  0  0  0  0  0  0  0
  2  1  1  0  0  0  0
  3  1  1  0  0  0  0
  4  3  1  6  0  0  0
  4  9  1  0  0  0  0
  5  2  1  6  0  0  0
  5  9  1  0  0  0  0
  6  4  1  0  0  0  0
  7  5  1  0  0  0  0
  8  6  1  0  0  0  0
  8  7  1  0  0  0  0
  9 10  1  0  0  0  0
M  END
$$$$
O=C1C=C[C@]2(C(=C1)CC[C@@H]1[C@@H]2CC[C@]2([C@H]1CCC(=O)O2)C)C
 OpenBabel07182308452D

 25 28  0  0  1  0  0  0  0  0999 V2000
    2.3513   -2.2614    0.0000 O   0  0  0  0  0  0  0  0  0  0  0  0
    3.0595   -3.4715    0.0000 O   0  0  0  0  0  0  0  0  0  0  0  0
    2.3219    3.4715    0.0000 O   0  0  0  0  0  0  0  0  0  0  0  0
    3.0499   -0.2485    0.0000 C   0  0  2  0  0  0  0  0  0  0  0  0
    2.3640    0.1476    0.0000 C   0  0  1  0  0  0  0  0  0  0  0  0
    3.0499   -1.0405    0.0000 C   0  0  1  0  0  0  0  0  0  0  0  0
    2.3640   -1.4365    0.0000 C   0  0  2  0  0  0  0  0  0  0  0  0
    2.3513    0.9725    0.0000 C   0  0  1  0  0  0  0  0  0  0  0  0
    1.6781   -0.2485    0.0000 C   0  0  0  0  0  0  0  0  0  0  0  0
    1.6781   -1.0405    0.0000 C   0  0  0  0  0  0  0  0  0  0  0  0
    3.7706    0.1529    0.0000 C   0  0  0  0  0  0  0  0  0  0  0  0
    3.7706   -1.4420    0.0000 C   0  0  0  0  0  0  0  0  0  0  0  0
    3.0626    1.3904    0.0000 C   0  0  0  0  0  0  0  0  0  0  0  0
    3.7771    0.9780    0.0000 C   0  0  0  0  0  0  0  0  0  0  0  0
    1.6781   -1.8326    0.0000 C   0  0  0  0  0  0  0  0  0  0  0  0
    1.6684    0.5712    0.0000 C   0  0  0  0  0  0  0  0  0  0  0  0
    1.5973    1.3848    0.0000 C   0  0  0  0  0  0  0  0  0  0  0  0
    3.7771   -2.2670    0.0000 C   0  0  0  0  0  0  0  0  0  0  0  0
    3.0626   -2.6795    0.0000 C   0  0  0  0  0  0  0  0  0  0  0  0
    3.0692    2.2498    0.0000 C   0  0  0  0  0  0  0  0  0  0  0  0
    1.5841    2.2441    0.0000 C   0  0  0  0  0  0  0  0  0  0  0  0
    2.3249    2.6795    0.0000 C   0  0  0  0  0  0  0  0  0  0  0  0
    3.5963   -0.5695    0.0000 H   0  0  0  0  0  0  0  0  0  0  0  0
    1.8128    0.4601    0.0000 H   0  0  0  0  0  0  0  0  0  0  0  0
    3.5963   -0.7195    0.0000 H   0  0  0  0  0  0  0  0  0  0  0  0
  1  7  1  0  0  0  0
  1 19  1  0  0  0  0
  2 19  2  0  0  0  0
  3 22  2  0  0  0  0
  4  5  1  6  0  0  0
  4 11  1  0  0  0  0
  4 23  1  0  0  0  0
  5  8  1  6  0  0  0
  5  9  1  0  0  0  0
  5 24  1  0  0  0  0
  6  4  1  6  0  0  0
  6 12  1  0  0  0  0
  6 25  1  0  0  0  0
  7  6  1  6  0  0  0
  7 10  1  0  0  0  0
  7 15  1  0  0  0  0
  8 13  1  0  0  0  0
  8 16  1  6  0  0  0
  8 17  1  0  0  0  0
  9 10  1  0  0  0  0
 11 14  1  0  0  0  0
 12 18  1  0  0  0  0
 13 14  1  0  0  0  0
 13 20  2  0  0  0  0
 17 21  2  0  0  0  0
 18 19  1  0  0  0  0
 20 22  1  0  0  0  0
 21 22  1  0  0  0  0
M  END
$$$$
CC1(C)SCNC1
 OpenBabel07182308452D

  9  9  0  0  0  0  0  0  0  0999 V2000
    7.7993  -10.1754    0.0000 C   0  0  0  0  0  0  0  0  0  0  0  0
    8.5828   -9.9171    0.0000 S   0  0  0  0  0  0  0  0  0  0  0  0
    7.8028  -11.0004    0.0000 N   0  0  0  0  0  0  0  0  0  0  0  0
    8.5885  -11.2520    0.0000 C   0  0  0  0  0  0  0  0  0  0  0  0
    9.0706  -10.5825    0.0000 C   0  0  0  0  0  0  0  0  0  0  0  0
    7.7993   -9.3504    0.0000 H   0  0  0  0  0  0  0  0  0  0  0  0
    9.7850  -10.1700    0.0000 C   0  0  0  0  0  0  0  0  0  0  0  0
    9.7850  -10.9950    0.0000 C   0  0  0  0  0  0  0  0  0  0  0  0
    6.9802  -11.6034    0.0000 H   0  0  0  0  0  0  0  0  0  0  0  0
  1  3  1  0  0  0  0
  1  6  1  0  0  0  0
  2  1  1  0  0  0  0
  2  5  1  0  0  0  0
  3  4  1  0  0  0  0
  3  9  1  0  0  0  0
  4  5  1  0  0  0  0
  5  7  1  0  0  0  0
  5  8  1  0  0  0  0
M  END
$$$$
O=C1C=C[C@]2(C(=C1)CC[C@@H]1[C@@H]2[C@@H](O)C[C@]2([C@H]1C[C@H]([C@H]2C)C)C)C
 OpenBabel07182308452D

 27 30  0  0  0  0  0  0  0  0999 V2000
    1.0605    0.4942    0.0000 C   0  0  1  0  0  0  0  0  0  0  0  0
    1.0605   -0.3262    0.0000 C   0  0  2  0  0  0  0  0  0  0  0  0
   -1.0749   -0.7197    0.0000 C   0  0  2  0  0  0  0  0  0  0  0  0
    1.7948    0.7342    0.0000 C   0  0  1  0  0  0  0  0  0  0  0  0
    0.3695   -0.7197    0.0000 C   0  0  1  0  0  0  0  0  0  0  0  0
   -0.3502   -0.3262    0.0000 C   0  0  2  0  0  0  0  0  0  0  0  0
   -1.0749   -1.5403    0.0000 C   0  0  0  0  0  0  0  0  0  0  0  0
    0.3695    0.8925    0.0000 C   0  0  0  0  0  0  0  0  0  0  0  0
   -0.3502    0.5087    0.0000 C   0  0  2  0  0  0  0  0  0  0  0  0
    2.2698    0.0768    0.0000 C   0  0  1  0  0  0  0  0  0  0  0  0
   -1.7803   -0.2974    0.0000 C   0  0  0  0  0  0  0  0  0  0  0  0
    1.8379   -0.5471    0.0000 C   0  0  0  0  0  0  0  0  0  0  0  0
   -1.8186   -1.9243    0.0000 C   0  0  0  0  0  0  0  0  0  0  0  0
    0.3695   -1.5547    0.0000 C   0  0  0  0  0  0  0  0  0  0  0  0
   -2.5097   -0.7197    0.0000 C   0  0  0  0  0  0  0  0  0  0  0  0
   -2.5097   -1.5067    0.0000 C   0  0  0  0  0  0  0  0  0  0  0  0
   -0.3502   -1.9722    0.0000 C   0  0  0  0  0  0  0  0  0  0  0  0
   -3.2439   -1.8714    0.0000 O   0  0  0  0  0  0  0  0  0  0  0  0
    1.0605    1.3244    0.0000 C   0  0  0  0  0  0  0  0  0  0  0  0
   -1.0605    0.9405    0.0000 O   0  0  0  0  0  0  0  0  0  0  0  0
   -1.0749    0.1151    0.0000 C   0  0  0  0  0  0  0  0  0  0  0  0
    2.5289    1.1133    0.0000 C   0  0  0  0  0  0  0  0  0  0  0  0
    3.0999    0.0863    0.0000 C   0  0  0  0  0  0  0  0  0  0  0  0
    1.0605   -1.1516    0.0000 H   0  0  0  0  0  0  0  0  0  0  0  0
    0.3695    0.1151    0.0000 H   0  0  0  0  0  0  0  0  0  0  0  0
   -0.3502   -1.1516    0.0000 H   0  0  0  0  0  0  0  0  0  0  0  0
   -1.0386    1.9103    0.0000 H   0  0  0  0  0  0  0  0  0  0  0  0
  1  2  1  1  0  0  0
  1 19  1  0  0  0  0
  2  5  1  1  0  0  0
  2 24  1  0  0  0  0
  3  6  1  6  0  0  0
  3 21  1  0  0  0  0
  4  1  1  6  0  0  0
  4 22  1  0  0  0  0
  5 25  1  0  0  0  0
  5  6  1  6  0  0  0
  6 26  1  6  0  0  0
  7  3  1  0  0  0  0
  7 17  1  0  0  0  0
  8  1  1  0  0  0  0
  9  6  1  1  0  0  0
  9  8  1  0  0  0  0
  9 20  1  0  0  0  0
 10  4  1  0  0  0  0
 10 23  1  6  0  0  0
 10 12  1  0  0  0  0
 11  3  1  0  0  0  0
 12  2  1  0  0  0  0
 13  7  2  0  0  0  0
 14  5  1  0  0  0  0
 15 11  2  0  0  0  0
 16 15  1  0  0  0  0
 16 13  1  0  0  0  0
 17 14  1  0  0  0  0
 18 16  2  0  0  0  0
 20 27  1  0  0  0  0
M  END
$$$$
O=c1nc[nH]c2c1nc[nH]2
 OpenBabel07182308452D

 11 12  0  0  1  0  0  0  0  0999 V2000
    2.3645   -3.1584    0.0000 O   0  0  0  0  0  0  0  0  0  0  0  0
    3.8596   -0.8446    0.0000 N   0  0  0  0  0  0  0  0  0  0  0  0
    2.3645   -0.6834    0.0000 N   0  0  0  0  0  0  0  0  0  0  0  0
    3.8596   -2.1724    0.0000 N   0  0  0  0  0  0  0  0  0  0  0  0
    1.6500   -1.9209    0.0000 N   0  0  0  0  0  0  0  0  0  0  0  0
    3.0790   -1.0959    0.0000 C   0  0  0  0  0  0  0  0  0  0  0  0
    4.3411   -1.5084    0.0000 C   0  0  0  0  0  0  0  0  0  0  0  0
    3.0790   -1.9209    0.0000 C   0  0  0  0  0  0  0  0  0  0  0  0
    2.3645   -2.3334    0.0000 C   0  0  0  0  0  0  0  0  0  0  0  0
    1.6500   -1.0959    0.0000 C   0  0  0  0  0  0  0  0  0  0  0  0
    2.3645    0.3011    0.0000 H   0  0  0  0  0  0  0  0  0  0  0  0
  1  9  2  0  0  0  0
  2  6  1  0  0  0  0
  2  7  1  0  0  0  0
  3  6  1  0  0  0  0
  3 10  1  0  0  0  0
  3 11  1  0  0  0  0
  4  7  2  0  0  0  0
  4  8  1  0  0  0  0
  5  9  1  0  0  0  0
  5 10  2  0  0  0  0
  6  8  2  0  0  0  0
  8  9  1  0  0  0  0
M  END
$$$$
Clc1c(O)cccc1Cl
 OpenBabel07182308452D

  9  9  0  0  0  0  0  0  0  0999 V2000
    1.6500    1.0808    0.0000 Cl  0  0  0  0  0  0  0  0  0  0  0  0
    1.6500   -0.5693    0.0000 Cl  0  0  0  0  0  0  0  0  0  0  0  0
    3.0791   -1.3943    0.0000 O   0  0  0  0  0  0  0  0  0  0  0  0
    3.0791    1.0808    0.0000 C   0  0  0  0  0  0  0  0  0  0  0  0
    2.3645    0.6683    0.0000 C   0  0  0  0  0  0  0  0  0  0  0  0
    3.7935    0.6683    0.0000 C   0  0  0  0  0  0  0  0  0  0  0  0
    3.0791   -0.5693    0.0000 C   0  0  0  0  0  0  0  0  0  0  0  0
    2.3645   -0.1568    0.0000 C   0  0  0  0  0  0  0  0  0  0  0  0
    3.7935   -0.1568    0.0000 C   0  0  0  0  0  0  0  0  0  0  0  0
  1  5  1  0  0  0  0
  2  8  1  0  0  0  0
  3  7  1  0  0  0  0
  4  5  2  0  0  0  0
  4  6  1  0  0  0  0
  5  8  1  0  0  0  0
  6  9  2  0  0  0  0
  7  8  2  0  0  0  0
  7  9  1  0  0  0  0
M  END
$$$$
Cn1c2ccccc2c2c1CCCC2=O
 OpenBabel07182308452D

 15 17  0  0  1  0  0  0  0  0999 V2000
    4.2713   -1.2750    0.0000 O   0  0  0  0  0  0  0  0  0  0  0  0
    3.5862    1.3159    0.0000 N   0  0  0  0  0  0  0  0  0  0  0  0
    5.3330   -0.3593    0.0000 C   0  0  0  0  0  0  0  0  0  0  0  0
    5.5880    0.4254    0.0000 C   0  0  0  0  0  0  0  0  0  0  0  0
    5.0312    1.0343    0.0000 C   0  0  0  0  0  0  0  0  0  0  0  0
    4.2270    0.8503    0.0000 C   0  0  0  0  0  0  0  0  0  0  0  0
    3.9822    0.0970    0.0000 C   0  0  0  0  0  0  0  0  0  0  0  0
    4.5248   -0.5246    0.0000 C   0  0  0  0  0  0  0  0  0  0  0  0
    3.1901    0.0970    0.0000 C   0  0  0  0  0  0  0  0  0  0  0  0
    2.9453    0.8503    0.0000 C   0  0  0  0  0  0  0  0  0  0  0  0
    3.5862    2.1080    0.0000 C   0  0  0  0  0  0  0  0  0  0  0  0
    2.6475   -0.5246    0.0000 C   0  0  0  0  0  0  0  0  0  0  0  0
    2.1410    1.0343    0.0000 C   0  0  0  0  0  0  0  0  0  0  0  0
    1.8392   -0.3593    0.0000 C   0  0  0  0  0  0  0  0  0  0  0  0
    1.5842    0.4254    0.0000 C   0  0  0  0  0  0  0  0  0  0  0  0
  1  8  2  0  0  0  0
  2  6  1  0  0  0  0
  2 10  1  0  0  0  0
  2 11  1  0  0  0  0
  3  4  1  0  0  0  0
  3  8  1  0  0  0  0
  4  5  1  0  0  0  0
  5  6  1  0  0  0  0
  6  7  2  0  0  0  0
  7  8  1  0  0  0  0
  7  9  1  0  0  0  0
  9 10  1  0  0  0  0
  9 12  2  0  0  0  0
 10 13  2  0  0  0  0
 12 14  1  0  0  0  0
 13 15  1  0  0  0  0
 14 15  2  0  0  0  0
M  END
$$$$
Cc1cscc1
 OpenBabel07182308452D

  6  6  0  0  1  0  0  0  0  0999 V2000
    6.0232   -0.3227    0.0000 S   0  0  0  0  0  0  0  0  0  0  0  0
    5.9370   -1.1431    0.0000 C   0  0  0  0  0  0  0  0  0  0  0  0
    6.6906   -1.4787    0.0000 C   0  0  0  0  0  0  0  0  0  0  0  0
    7.2427   -0.8656    0.0000 C   0  0  0  0  0  0  0  0  0  0  0  0
    6.8622   -2.2857    0.0000 C   0  0  0  0  0  0  0  0  0  0  0  0
    6.8302   -0.1511    0.0000 C   0  0  0  0  0  0  0  0  0  0  0  0
  1  2  1  0  0  0  0
  1  6  1  0  0  0  0
  2  3  2  0  0  0  0
  3  4  1  0  0  0  0
  3  5  1  0  0  0  0
  4  6  2  0  0  0  0
M  END
$$$$
O[C@@H]1C[C@H]2CC[C@@H](C1)N2C
 OpenBabel07182308452D

 12 13  0  0  0  0  0  0  0  0999 V2000
   -0.6312    0.1434    0.0000 C   0  0  0  0  0  0  0  0  0  0  0  0
    0.1937    0.1434    0.0000 C   0  0  0  0  0  0  0  0  0  0  0  0
    0.5245    1.5927    0.0000 C   0  0  0  0  0  0  0  0  0  0  0  0
   -0.2250    0.5897    0.0000 N   0  0  0  0  0  0  0  0  0  0  0  0
   -0.2250    1.4147    0.0000 C   0  0  0  0  0  0  0  0  0  0  0  0
   -0.2187    1.9507    0.0000 C   0  0  1  0  0  0  0  0  0  0  0  0
   -0.9620    1.5927    0.0000 C   0  0  0  0  0  0  0  0  0  0  0  0
   -0.2187    2.7757    0.0000 O   0  0  0  0  0  0  0  0  0  0  0  0
   -1.1456    0.7885    0.0000 C   0  0  1  0  0  0  0  0  0  0  0  0
   -1.9425    0.5750    0.0000 H   0  0  0  0  0  0  0  0  0  0  0  0
    0.7081    0.7885    0.0000 C   0  0  1  0  0  0  0  0  0  0  0  0
    1.5050    0.5750    0.0000 H   0  0  0  0  0  0  0  0  0  0  0  0
  1  2  1  0  0  0  0
  2 11  1  0  0  0  0
  3  6  1  0  0  0  0
  4  5  1  0  0  0  0
  6  7  1  0  0  0  0
  6  8  1  1  0  0  0
  7  9  1  0  0  0  0
  9  1  1  0  0  0  0
  9  4  1  0  0  0  0
  9 10  1  1  0  0  0
 11  3  1  0  0  0  0
 11  4  1  0  0  0  0
 11 12  1  1  0  0  0
M  END
$$$$
c1ccc2c(c1)onc2
 OpenBabel07182308452D

  9 10  0  0  0  0  0  0  0  0999 V2000
    3.8596   -1.4641    0.0000 O   0  0  0  0  0  0  0  0  0  0  0  0
    4.3411   -0.8003    0.0000 N   0  0  0  0  0  0  0  0  0  0  0  0
    3.8596   -0.1364    0.0000 C   0  0  0  0  0  0  0  0  0  0  0  0
    3.0790   -0.3878    0.0000 C   0  0  0  0  0  0  0  0  0  0  0  0
    3.0790   -1.2128    0.0000 C   0  0  0  0  0  0  0  0  0  0  0  0
    2.3645    0.0248    0.0000 C   0  0  0  0  0  0  0  0  0  0  0  0
    2.3645   -1.6253    0.0000 C   0  0  0  0  0  0  0  0  0  0  0  0
    1.6500   -0.3878    0.0000 C   0  0  0  0  0  0  0  0  0  0  0  0
    1.6500   -1.2128    0.0000 C   0  0  0  0  0  0  0  0  0  0  0  0
  1  2  1  0  0  0  0
  1  5  1  0  0  0  0
  2  3  2  0  0  0  0
  3  4  1  0  0  0  0
  4  5  1  0  0  0  0
  4  6  2  0  0  0  0
  5  7  2  0  0  0  0
  6  8  1  0  0  0  0
  7  9  1  0  0  0  0
  8  9  2  0  0  0  0
M  END
$$$$
O[C@H]1C[C@H](O)CC(=C)C1
 OpenBabel07182308452D

 11 11  0  0  0  0  0  0  0  0999 V2000
   -2.1786   -1.1588    0.0000 C   0  0  0  0  0  0  0  0  0  0  0  0
   -2.1786   -1.9838    0.0000 C   0  0  0  0  0  0  0  0  0  0  0  0
   -1.4641   -2.3964    0.0000 C   0  0  0  0  0  0  0  0  0  0  0  0
   -2.8930   -2.3964    0.0000 C   0  0  0  0  0  0  0  0  0  0  0  0
   -1.4641   -3.2213    0.0000 C   0  0  2  0  0  0  0  0  0  0  0  0
   -2.8930   -3.2213    0.0000 C   0  0  2  0  0  0  0  0  0  0  0  0
   -2.1786   -3.6339    0.0000 C   0  0  0  0  0  0  0  0  0  0  0  0
   -3.6076   -3.6339    0.0000 O   0  0  0  0  0  0  0  0  0  0  0  0
   -0.7496   -3.6339    0.0000 O   0  0  0  0  0  0  0  0  0  0  0  0
   -4.4477   -3.1489    0.0000 H   0  0  0  0  0  0  0  0  0  0  0  0
   -0.7497   -4.6039    0.0000 H   0  0  0  0  0  0  0  0  0  0  0  0
  1  2  2  0  0  0  0
  2  3  1  0  0  0  0
  2  4  1  0  0  0  0
  3  5  1  0  0  0  0
  4  6  1  0  0  0  0
  5  7  1  0  0  0  0
  5  9  1  1  0  0  0
  6  8  1  6  0  0  0
  6  7  1  0  0  0  0
  8 10  1  0  0  0  0
  9 11  1  0  0  0  0
M  END
$$$$
NC12CC3CC(C2)CC(C1)C3
 OpenBabel07182308452D

 13 15  0  0  0  0  0  0  0  0999 V2000
    3.1364    1.3022    0.0000 N   0  0  0  0  0  0  0  0  0  0  0  0
    3.1364    0.4484    0.0000 C   0  0  3  0  0  0  0  0  0  0  0  0
    3.8503   -0.7882    0.0000 C   0  0  3  0  0  0  0  0  0  0  0  0
    2.5461   -1.1598    0.0000 C   0  0  3  0  0  0  0  0  0  0  0  0
    2.4222   -0.7882    0.0000 C   0  0  3  0  0  0  0  0  0  0  0  0
    3.8503    0.0361    0.0000 C   0  0  0  0  0  0  0  0  0  0  0  0
    2.5461   -0.2672    0.0000 C   0  0  0  0  0  0  0  0  0  0  0  0
    2.4222    0.0361    0.0000 C   0  0  0  0  0  0  0  0  0  0  0  0
    3.3196   -1.5668    0.0000 C   0  0  0  0  0  0  0  0  0  0  0  0
    3.1364   -1.0469    0.0000 C   0  0  0  0  0  0  0  0  0  0  0  0
    1.7077   -1.2006    0.0000 C   0  0  0  0  0  0  0  0  0  0  0  0
    4.0197    1.8122    0.0000 H   0  0  0  0  0  0  0  0  0  0  0  0
    2.2531    1.8122    0.0000 H   0  0  0  0  0  0  0  0  0  0  0  0
  1  2  1  0  0  0  0
  1 12  1  0  0  0  0
  1 13  1  0  0  0  0
  2  6  1  0  0  0  0
  2  7  1  0  0  0  0
  2  8  1  0  0  0  0
  3  6  1  0  0  0  0
  3  9  1  0  0  0  0
  3 10  1  0  0  0  0
  4  7  1  0  0  0  0
  4  9  1  0  0  0  0
  4 11  1  0  0  0  0
  5  8  1  0  0  0  0
  5 10  1  0  0  0  0
  5 11  1  0  0  0  0
M  END
$$$$
O[C@H]1C[C@H](O)[C@@H]2[C@@H](C1)O[C@@]1([C@H](O2)O[C@@H](CC1=O)C)O
 OpenBabel07182308452D

 25 27  0  0  1  0  0  0  0  0999 V2000
    5.0678    0.7104    0.0000 O   0  0  0  0  0  0  0  0  0  0  0  0
    5.0678   -0.8737    0.0000 O   0  0  0  0  0  0  0  0  0  0  0  0
    6.4618   -0.9013    0.0000 O   0  0  0  0  0  0  0  0  0  0  0  0
    3.6830   -1.6932    0.0000 O   0  0  0  0  0  0  0  0  0  0  0  0
    2.2716    0.7295    0.0000 O   0  0  0  0  0  0  0  0  0  0  0  0
    5.7538    1.1065    0.0000 O   0  0  0  0  0  0  0  0  0  0  0  0
    6.4527    1.5299    0.0000 O   0  0  0  0  0  0  0  0  0  0  0  0
    4.3818    0.3143    0.0000 C   0  0  1  0  0  0  0  0  0  0  0  0
    4.3818   -0.4777    0.0000 C   0  0  1  0  0  0  0  0  0  0  0  0
    3.6737    0.7379    0.0000 C   0  0  0  0  0  0  0  0  0  0  0  0
    3.6737   -0.9013    0.0000 C   0  0  2  0  0  0  0  0  0  0  0  0
    2.9560   -0.4942    0.0000 C   0  0  0  0  0  0  0  0  0  0  0  0
    2.9560    0.3309    0.0000 C   0  0  2  0  0  0  0  0  0  0  0  0
    5.7538    0.3143    0.0000 C   0  0  2  0  0  0  0  0  0  0  0  0
    5.7538   -0.4777    0.0000 C   0  0  2  0  0  0  0  0  0  0  0  0
    6.4618    0.7379    0.0000 C   0  0  0  0  0  0  0  0  0  0  0  0
    7.1795   -0.4942    0.0000 C   0  0  1  0  0  0  0  0  0  0  0  0
    7.1795    0.3309    0.0000 C   0  0  0  0  0  0  0  0  0  0  0  0
    7.8639   -0.8929    0.0000 C   0  0  0  0  0  0  0  0  0  0  0  0
    4.3867    0.9480    0.0000 H   0  0  0  0  0  0  0  0  0  0  0  0
    4.3867   -1.1113    0.0000 H   0  0  0  0  0  0  0  0  0  0  0  0
    5.7489   -1.1113    0.0000 H   0  0  0  0  0  0  0  0  0  0  0  0
    2.8487   -2.1880    0.0000 H   0  0  0  0  0  0  0  0  0  0  0  0
    2.2753    1.6995    0.0000 H   0  0  0  0  0  0  0  0  0  0  0  0
    6.5938    1.5915    0.0000 H   0  0  0  0  0  0  0  0  0  0  0  0
  1  8  1  0  0  0  0
  1 14  1  0  0  0  0
  2  9  1  0  0  0  0
  2 15  1  0  0  0  0
  3 15  1  0  0  0  0
  3 17  1  0  0  0  0
  4 23  1  0  0  0  0
  5 24  1  0  0  0  0
  6 25  1  0  0  0  0
  7 16  2  0  0  0  0
  8  9  1  6  0  0  0
  8 10  1  0  0  0  0
  8 20  1  0  0  0  0
  9 21  1  1  0  0  0
 10 13  1  0  0  0  0
 11  4  1  0  0  0  0
 11  9  1  1  0  0  0
 11 12  1  0  0  0  0
 12 13  1  0  0  0  0
 13  5  1  6  0  0  0
 14  6  1  0  0  0  0
 14 15  1  6  0  0  0
 14 16  1  0  0  0  0
 15 22  1  6  0  0  0
 16 18  1  0  0  0  0
 17 18  1  0  0  0  0
 17 19  1  1  0  0  0
M  END
$$$$
CN1CCC(=C2c3ccccc3CC(=O)c3c2ccs3)CC1
 OpenBabel07182308452D

 22 25  0  0  0  0  0  0  0  0999 V2000
    1.9717    1.6084    0.0000 S   0  0  0  0  0  0  0  0  0  0  0  0
    2.9451    2.9253    0.0000 O   0  0  0  0  0  0  0  0  0  0  0  0
    3.7156   -2.1003    0.0000 N   0  0  0  0  0  0  0  0  0  0  0  0
    3.7156   -0.4503    0.0000 C   0  0  0  0  0  0  0  0  0  0  0  0
    4.4301   -0.8628    0.0000 C   0  0  0  0  0  0  0  0  0  0  0  0
    3.0012   -0.8628    0.0000 C   0  0  0  0  0  0  0  0  0  0  0  0
    4.4301   -1.6878    0.0000 C   0  0  0  0  0  0  0  0  0  0  0  0
    3.0012   -1.6878    0.0000 C   0  0  0  0  0  0  0  0  0  0  0  0
    3.7156    0.3747    0.0000 C   0  0  0  0  0  0  0  0  0  0  0  0
    4.4590    0.7327    0.0000 C   0  0  0  0  0  0  0  0  0  0  0  0
    2.9723    0.7327    0.0000 C   0  0  0  0  0  0  0  0  0  0  0  0
    4.6425    1.5370    0.0000 C   0  0  0  0  0  0  0  0  0  0  0  0
    3.7156   -2.9253    0.0000 C   0  0  0  0  0  0  0  0  0  0  0  0
    2.7887    1.5370    0.0000 C   0  0  0  0  0  0  0  0  0  0  0  0
    4.1281    2.1820    0.0000 C   0  0  0  0  0  0  0  0  0  0  0  0
    3.3031    2.1820    0.0000 C   0  0  0  0  0  0  0  0  0  0  0  0
    5.0798    0.1385    0.0000 C   0  0  0  0  0  0  0  0  0  0  0  0
    2.2671    0.3138    0.0000 C   0  0  0  0  0  0  0  0  0  0  0  0
    5.4597    1.8029    0.0000 C   0  0  0  0  0  0  0  0  0  0  0  0
    1.6500    0.8540    0.0000 C   0  0  0  0  0  0  0  0  0  0  0  0
    5.9029    0.3854    0.0000 C   0  0  0  0  0  0  0  0  0  0  0  0
    6.0941    1.2232    0.0000 C   0  0  0  0  0  0  0  0  0  0  0  0
  1 14  1  0  0  0  0
  1 20  1  0  0  0  0
  2 16  2  0  0  0  0
  3  7  1  0  0  0  0
  3  8  1  0  0  0  0
  3 13  1  0  0  0  0
  4  5  1  0  0  0  0
  4  6  1  0  0  0  0
  4  9  2  0  0  0  0
  5  7  1  0  0  0  0
  6  8  1  0  0  0  0
  9 10  1  0  0  0  0
  9 11  1  0  0  0  0
 10 12  1  0  0  0  0
 10 17  2  0  0  0  0
 11 14  2  0  0  0  0
 11 18  1  0  0  0  0
 12 15  1  0  0  0  0
 12 19  2  0  0  0  0
 14 16  1  0  0  0  0
 15 16  1  0  0  0  0
 17 21  1  0  0  0  0
 18 20  2  0  0  0  0
 19 22  1  0  0  0  0
 21 22  2  0  0  0  0
M  END
$$$$
CN1CC[C@@]23[C@@]45[C@H]1Cc1c3c(O[C@H]2C(CC4)CC5)c(cc1)O
 OpenBabel07182308452D

 23 28  0  0  1  0  0  0  0  0999 V2000
    4.3078   -2.2511    0.0000 O   0  0  0  0  0  0  0  0  0  0  0  0
    2.2396   -2.4225    0.0000 O   0  0  0  0  0  0  0  0  0  0  0  0
    5.1420    1.1756    0.0000 N   0  0  0  0  0  0  0  0  0  0  0  0
    5.1420   -0.2533    0.0000 C   0  0  2  0  0  0  0  0  0  0  0  0
    4.7295   -0.9678    0.0000 C   0  0  1  0  0  0  0  0  0  0  0  0
    5.9670   -1.6823    0.0000 C   0  0  3  0  0  0  0  0  0  0  0  0
    5.1420   -1.6823    0.0000 C   0  0  2  0  0  0  0  0  0  0  0  0
    6.3796   -0.9678    0.0000 C   0  0  0  0  0  0  0  0  0  0  0  0
    5.9670   -0.2533    0.0000 C   0  0  0  0  0  0  0  0  0  0  0  0
    4.7295    0.4612    0.0000 C   0  0  1  0  0  0  0  0  0  0  0  0
    5.7378   -0.6378    0.0000 C   0  0  0  0  0  0  0  0  0  0  0  0
    5.4262   -1.2611    0.0000 C   0  0  0  0  0  0  0  0  0  0  0  0
    4.3171   -0.2533    0.0000 C   0  0  0  0  0  0  0  0  0  0  0  0
    3.9045   -0.9678    0.0000 C   0  0  0  0  0  0  0  0  0  0  0  0
    3.9045    0.4612    0.0000 C   0  0  0  0  0  0  0  0  0  0  0  0
    4.3078    1.3238    0.0000 C   0  0  0  0  0  0  0  0  0  0  0  0
    3.4920   -0.2533    0.0000 C   0  0  0  0  0  0  0  0  0  0  0  0
    3.4920   -1.6823    0.0000 C   0  0  0  0  0  0  0  0  0  0  0  0
    5.9170    1.5364    0.0000 C   0  0  0  0  0  0  0  0  0  0  0  0
    2.6670   -0.2533    0.0000 C   0  0  0  0  0  0  0  0  0  0  0  0
    2.6670   -1.6823    0.0000 C   0  0  0  0  0  0  0  0  0  0  0  0
    2.2545   -0.9678    0.0000 C   0  0  0  0  0  0  0  0  0  0  0  0
    1.3026   -2.4225    0.0000 H   0  0  0  0  0  0  0  0  0  0  0  0
  1 18  1  0  0  0  0
  2 21  1  0  0  0  0
  2 23  1  0  0  0  0
  3 16  1  0  0  0  0
  3 19  1  0  0  0  0
  4  9  1  1  0  0  0
  4 11  1  0  0  0  0
  5  4  1  6  0  0  0
  5 13  1  0  0  0  0
  5 14  1  0  0  0  0
  6  7  1  0  0  0  0
  6  8  1  0  0  0  0
  6 12  1  0  0  0  0
  7  1  1  0  0  0  0
  7  5  1  6  0  0  0
  8  9  1  0  0  0  0
 10  3  1  0  0  0  0
 10  4  1  1  0  0  0
 10 15  1  0  0  0  0
 11 12  1  0  0  0  0
 13 16  1  0  0  0  0
 14 17  2  0  0  0  0
 14 18  1  0  0  0  0
 15 17  1  0  0  0  0
 17 20  1  0  0  0  0
 18 21  2  0  0  0  0
 20 22  2  0  0  0  0
 21 22  1  0  0  0  0
M  END
$$$$
C[C@@H]1CC(=O)NN=C1
 OpenBabel07182308452D

  9  9  0  0  1  0  0  0  0  0999 V2000
    9.5092   -2.0130    0.0000 O   0  0  0  0  0  0  0  0  0  0  0  0
    7.3658   -1.6005    0.0000 N   0  0  0  0  0  0  0  0  0  0  0  0
    8.0802   -2.0130    0.0000 N   0  0  0  0  0  0  0  0  0  0  0  0
    8.0802   -0.3630    0.0000 C   0  0  2  0  0  0  0  0  0  0  0  0
    8.7947   -0.7755    0.0000 C   0  0  0  0  0  0  0  0  0  0  0  0
    7.3658   -0.7755    0.0000 C   0  0  0  0  0  0  0  0  0  0  0  0
    8.0802    0.4620    0.0000 C   0  0  0  0  0  0  0  0  0  0  0  0
    8.7947   -1.6005    0.0000 C   0  0  0  0  0  0  0  0  0  0  0  0
    8.0802   -2.9975    0.0000 H   0  0  0  0  0  0  0  0  0  0  0  0
  1  8  2  0  0  0  0
  2  3  1  0  0  0  0
  2  6  2  0  0  0  0
  3  8  1  0  0  0  0
  3  9  1  0  0  0  0
  4  5  1  0  0  0  0
  4  6  1  0  0  0  0
  4  7  1  6  0  0  0
  5  8  1  0  0  0  0
M  END
$$$$
NN=C(C#N)C#N
 OpenBabel07182308452D

  8  7  0  0  1  0  0  0  0  0999 V2000
    4.5079    0.8745    0.0000 N   0  0  0  0  0  0  0  0  0  0  0  0
    3.7934    0.4620    0.0000 N   0  0  0  0  0  0  0  0  0  0  0  0
    3.0790    2.5245    0.0000 N   0  0  0  0  0  0  0  0  0  0  0  0
    1.6500    0.0495    0.0000 N   0  0  0  0  0  0  0  0  0  0  0  0
    3.0790    0.8745    0.0000 C   0  0  0  0  0  0  0  0  0  0  0  0
    3.0790    1.6995    0.0000 C   0  0  0  0  0  0  0  0  0  0  0  0
    2.3644    0.4620    0.0000 C   0  0  0  0  0  0  0  0  0  0  0  0
    4.5079    1.8590    0.0000 H   0  0  0  0  0  0  0  0  0  0  0  0
  1  2  1  0  0  0  0
  1  8  1  0  0  0  0
  2  5  2  0  0  0  0
  3  6  3  0  0  0  0
  4  7  3  0  0  0  0
  5  6  1  0  0  0  0
  5  7  1  0  0  0  0
M  END
$$$$
C/C=C/1\c2ccccc2C=Cc2c1cccc2
 OpenBabel07182308452D

 17 19  0  0  0  0  0  0  0  0999 V2000
    4.0282    0.7463    0.0000 C   0  0  0  0  0  0  0  0  0  0  0  0
    4.7714    1.1042    0.0000 C   0  0  0  0  0  0  0  0  0  0  0  0
    3.2848    1.1042    0.0000 C   0  0  0  0  0  0  0  0  0  0  0  0
    3.3137   -0.4911    0.0000 C   0  0  0  0  0  0  0  0  0  0  0  0
    4.0282   -0.0786    0.0000 C   0  0  0  0  0  0  0  0  0  0  0  0
    4.9550    1.9084    0.0000 C   0  0  0  0  0  0  0  0  0  0  0  0
    3.1013    1.9084    0.0000 C   0  0  0  0  0  0  0  0  0  0  0  0
    4.4406    2.5534    0.0000 C   0  0  0  0  0  0  0  0  0  0  0  0
    3.6157    2.5534    0.0000 C   0  0  0  0  0  0  0  0  0  0  0  0
    5.3922    0.5102    0.0000 C   0  0  0  0  0  0  0  0  0  0  0  0
    2.6641    0.5102    0.0000 C   0  0  0  0  0  0  0  0  0  0  0  0
    5.7720    2.1743    0.0000 C   0  0  0  0  0  0  0  0  0  0  0  0
    2.2842    2.1743    0.0000 C   0  0  0  0  0  0  0  0  0  0  0  0
    6.2152    0.7570    0.0000 C   0  0  0  0  0  0  0  0  0  0  0  0
    1.8410    0.7570    0.0000 C   0  0  0  0  0  0  0  0  0  0  0  0
    6.4064    1.5948    0.0000 C   0  0  0  0  0  0  0  0  0  0  0  0
    1.6499    1.5949    0.0000 C   0  0  0  0  0  0  0  0  0  0  0  0
  1  2  1  0  0  0  0
  1  3  1  0  0  0  0
  1  5  2  0  0  0  0
  2  6  1  0  0  0  0
  2 10  2  0  0  0  0
  3  7  1  0  0  0  0
  3 11  2  0  0  0  0
  4  5  1  0  0  0  0
  6  8  1  0  0  0  0
  6 12  2  0  0  0  0
  7  9  1  0  0  0  0
  7 13  2  0  0  0  0
  8  9  2  0  0  0  0
 10 14  1  0  0  0  0
 11 15  1  0  0  0  0
 12 16  1  0  0  0  0
 13 17  1  0  0  0  0
 14 16  2  0  0  0  0
 15 17  2  0  0  0  0
M  END
$$$$
Cc1cscn1
 OpenBabel07182308452D

  6  6  0  0  0  0  0  0  0  0999 V2000
   -1.0230   -1.6954    0.0000 C   0  0  0  0  0  0  0  0  0  0  0  0
   -1.4356   -0.4258    0.0000 N   0  0  0  0  0  0  0  0  0  0  0  0
   -1.8481   -1.6954    0.0000 S   0  0  0  0  0  0  0  0  0  0  0  0
   -2.1030   -0.9108    0.0000 C   0  0  0  0  0  0  0  0  0  0  0  0
   -0.7681   -0.9108    0.0000 C   0  0  0  0  0  0  0  0  0  0  0  0
    0.0287   -0.6973    0.0000 C   0  0  0  0  0  0  0  0  0  0  0  0
  1  5  2  0  0  0  0
  2  4  2  0  0  0  0
  2  5  1  0  0  0  0
  3  1  1  0  0  0  0
  4  3  1  0  0  0  0
  5  6  1  0  0  0  0
M  END
$$$$
Nc1nc(=O)[nH]cn1
 OpenBabel07182308452D

 10 10  0  0  1  0  0  0  0  0999 V2000
    2.0533    0.2492    0.0000 O   0  0  0  0  0  0  0  0  0  0  0  0
    3.4822    0.2492    0.0000 N   0  0  0  0  0  0  0  0  0  0  0  0
    2.7678    1.4868    0.0000 N   0  0  0  0  0  0  0  0  0  0  0  0
    4.1967    1.4868    0.0000 N   0  0  0  0  0  0  0  0  0  0  0  0
    3.4822    2.7243    0.0000 N   0  0  0  0  0  0  0  0  0  0  0  0
    2.7678    0.6617    0.0000 C   0  0  0  0  0  0  0  0  0  0  0  0
    4.1967    0.6617    0.0000 C   0  0  0  0  0  0  0  0  0  0  0  0
    3.4822    1.8993    0.0000 C   0  0  0  0  0  0  0  0  0  0  0  0
    4.3348    3.2165    0.0000 H   0  0  0  0  0  0  0  0  0  0  0  0
    2.6296    3.2165    0.0000 H   0  0  0  0  0  0  0  0  0  0  0  0
  1  6  2  0  0  0  0
  2  6  1  0  0  0  0
  2  7  1  0  0  0  0
  3  6  1  0  0  0  0
  3  8  2  0  0  0  0
  4  7  2  0  0  0  0
  4  8  1  0  0  0  0
  5  8  1  0  0  0  0
  5  9  1  0  0  0  0
  5 10  1  0  0  0  0
M  END
$$$$
OC1=CC(=O)[C@@]2([C@H](C1)[C@@H](O)[C@H]1C(=C2O)C(=O)c2c(C1=C)cccc2O)O
 OpenBabel07182308452D

 33 36  0  0  0  0  0  0  0  0999 V2000
    0.6947   -0.1982    0.0000 C   0  0  1  0  0  0  0  0  0  0  0  0
    0.7047    0.6037    0.0000 C   0  0  2  0  0  0  0  0  0  0  0  0
   -0.0398   -0.6034    0.0000 C   0  0  2  0  0  0  0  0  0  0  0  0
    1.4167   -0.6403    0.0000 C   0  0  0  0  0  0  0  0  0  0  0  0
   -0.0006    1.0215    0.0000 C   0  0  0  0  0  0  0  0  0  0  0  0
    1.4546    1.0457    0.0000 C   0  0  0  0  0  0  0  0  0  0  0  0
    0.7047    1.4287    0.0000 O   0  0  0  0  0  0  0  0  0  0  0  0
   -0.7495   -0.1972    0.0000 C   0  0  1  0  0  0  0  0  0  0  0  0
   -0.0398   -1.4282    0.0000 O   0  0  0  0  0  0  0  0  0  0  0  0
    2.1630   -0.2199    0.0000 C   0  0  0  0  0  0  0  0  0  0  0  0
   -0.7424    0.6278    0.0000 C   0  0  0  0  0  0  0  0  0  0  0  0
   -0.0006    1.8463    0.0000 O   0  0  0  0  0  0  0  0  0  0  0  0
    2.1694    0.5922    0.0000 C   0  0  0  0  0  0  0  0  0  0  0  0
    1.4546    1.8707    0.0000 O   0  0  0  0  0  0  0  0  0  0  0  0
   -1.4707   -0.6023    0.0000 C   0  0  0  0  0  0  0  0  0  0  0  0
    2.8788   -0.6323    0.0000 O   0  0  0  0  0  0  0  0  0  0  0  0
   -1.4412    1.0532    0.0000 C   0  0  0  0  0  0  0  0  0  0  0  0
   -2.1744   -0.1843    0.0000 C   0  0  0  0  0  0  0  0  0  0  0  0
   -2.1744    0.6406    0.0000 C   0  0  0  0  0  0  0  0  0  0  0  0
   -1.4412    1.8782    0.0000 O   0  0  0  0  0  0  0  0  0  0  0  0
   -2.8908   -0.5853    0.0000 C   0  0  0  0  0  0  0  0  0  0  0  0
   -2.8592    1.0532    0.0000 C   0  0  0  0  0  0  0  0  0  0  0  0
   -3.6051   -0.1740    0.0000 C   0  0  0  0  0  0  0  0  0  0  0  0
   -3.6051    0.6522    0.0000 C   0  0  0  0  0  0  0  0  0  0  0  0
   -2.8592    1.8780    0.0000 O   0  0  0  0  0  0  0  0  0  0  0  0
    0.6947   -1.0228    0.0000 H   0  0  0  0  0  0  0  0  0  0  0  0
   -0.7495   -1.0221    0.0000 H   0  0  0  0  0  0  0  0  0  0  0  0
   -1.4806   -1.4271    0.0000 C   0  0  0  0  0  0  0  0  0  0  0  0
    1.5447    1.9137    0.0000 H   0  0  0  0  0  0  0  0  0  0  0  0
   -0.8798   -1.9132    0.0000 H   0  0  0  0  0  0  0  0  0  0  0  0
    0.8109    2.3148    0.0000 H   0  0  0  0  0  0  0  0  0  0  0  0
    2.8797   -1.5693    0.0000 H   0  0  0  0  0  0  0  0  0  0  0  0
   -2.0477    2.3465    0.0000 H   0  0  0  0  0  0  0  0  0  0  0  0
  1  2  1  1  0  0  0
  1  4  1  0  0  0  0
  1 26  1  0  0  0  0
  2  5  1  0  0  0  0
  2  6  1  0  0  0  0
  2  7  1  1  0  0  0
  3  1  1  1  0  0  0
  3  8  1  0  0  0  0
  3  9  1  0  0  0  0
  4 10  1  0  0  0  0
  5 11  2  0  0  0  0
  5 12  1  0  0  0  0
  6 13  1  0  0  0  0
  6 14  2  0  0  0  0
  7 29  1  0  0  0  0
  8 15  1  0  0  0  0
  8 11  1  0  0  0  0
  8 27  1  1  0  0  0
  9 30  1  0  0  0  0
 10 16  1  0  0  0  0
 10 13  2  0  0  0  0
 11 17  1  0  0  0  0
 12 31  1  0  0  0  0
 15 18  1  0  0  0  0
 15 28  2  0  0  0  0
 16 32  1  0  0  0  0
 17 19  1  0  0  0  0
 17 20  2  0  0  0  0
 18 21  1  0  0  0  0
 18 19  2  0  0  0  0
 19 22  1  0  0  0  0
 21 23  2  0  0  0  0
 22 24  2  0  0  0  0
 22 25  1  0  0  0  0
 23 24  1  0  0  0  0
 25 33  1  0  0  0  0
M  END
$$$$
OC1=CC(=O)OCC1
 OpenBabel07182308452D

  9  9  0  0  1  0  0  0  0  0999 V2000
   -2.0913    6.9567    0.0000 C   0  0  0  0  0  0  0  0  0  0  0  0
   -2.6216    7.5887    0.0000 C   0  0  0  0  0  0  0  0  0  0  0  0
   -3.4340    7.4455    0.0000 C   0  0  0  0  0  0  0  0  0  0  0  0
   -3.7162    6.6702    0.0000 C   0  0  0  0  0  0  0  0  0  0  0  0
   -2.3734    6.1815    0.0000 C   0  0  0  0  0  0  0  0  0  0  0  0
   -2.3394    8.3640    0.0000 O   0  0  0  0  0  0  0  0  0  0  0  0
   -4.5287    6.5270    0.0000 O   0  0  0  0  0  0  0  0  0  0  0  0
   -3.1859    6.0382    0.0000 O   0  0  0  0  0  0  0  0  0  0  0  0
   -1.4166    8.5267    0.0000 H   0  0  0  0  0  0  0  0  0  0  0  0
  2  1  1  0  0  0  0
  3  2  2  0  0  0  0
  4  3  1  0  0  0  0
  5  1  1  0  0  0  0
  6  2  1  0  0  0  0
  6  9  1  0  0  0  0
  7  4  2  0  0  0  0
  8  4  1  0  0  0  0
  8  5  1  0  0  0  0
M  END
$$$$
CC12CCC(c3c1cccc3)c1c2cccc1
 OpenBabel07182308452D

 17 20  0  0  0  0  0  0  0  0999 V2000
    4.5950    0.7910    0.0000 C   0  0  3  0  0  0  0  0  0  0  0  0
    4.8000    1.5561    0.0000 C   0  0  3  0  0  0  0  0  0  0  0  0
    3.8205    2.2283    0.0000 C   0  0  0  0  0  0  0  0  0  0  0  0
    4.5065    2.6244    0.0000 C   0  0  0  0  0  0  0  0  0  0  0  0
    6.0461    0.1900    0.0000 C   0  0  0  0  0  0  0  0  0  0  0  0
    3.2232   -0.0010    0.0000 C   0  0  0  0  0  0  0  0  0  0  0  0
    4.3900    0.0260    0.0000 C   0  0  0  0  0  0  0  0  0  0  0  0
    6.2511    0.9551    0.0000 C   0  0  0  0  0  0  0  0  0  0  0  0
    2.8271    0.6849    0.0000 C   0  0  0  0  0  0  0  0  0  0  0  0
    6.6204   -0.4023    0.0000 C   0  0  0  0  0  0  0  0  0  0  0  0
    2.8217   -0.7218    0.0000 C   0  0  0  0  0  0  0  0  0  0  0  0
    7.0446    1.1809    0.0000 C   0  0  0  0  0  0  0  0  0  0  0  0
    2.0022    0.6977    0.0000 C   0  0  0  0  0  0  0  0  0  0  0  0
    7.4190   -0.1949    0.0000 C   0  0  0  0  0  0  0  0  0  0  0  0
    1.9966   -0.7281    0.0000 C   0  0  0  0  0  0  0  0  0  0  0  0
    7.6324    0.6020    0.0000 C   0  0  0  0  0  0  0  0  0  0  0  0
    1.5841   -0.0136    0.0000 C   0  0  0  0  0  0  0  0  0  0  0  0
  1  3  1  0  0  0  0
  1  5  1  0  0  0  0
  1  6  1  0  0  0  0
  1  7  1  0  0  0  0
  2  4  1  0  0  0  0
  2  8  1  0  0  0  0
  2  9  1  0  0  0  0
  3  4  1  0  0  0  0
  5  8  1  0  0  0  0
  5 10  2  0  0  0  0
  6  9  1  0  0  0  0
  6 11  2  0  0  0  0
  8 12  2  0  0  0  0
  9 13  2  0  0  0  0
 10 14  1  0  0  0  0
 11 15  1  0  0  0  0
 12 16  1  0  0  0  0
 13 17  1  0  0  0  0
 14 16  2  0  0  0  0
 15 17  2  0  0  0  0
M  END
$$$$
Cc1ccc(c(c1C)C)O
 OpenBabel07182308452D

 11 11  0  0  0  0  0  0  0  0999 V2000
    2.0930    1.2002    0.0000 O   0  0  0  0  0  0  0  0  0  0  0  0
    3.5220    1.2002    0.0000 C   0  0  0  0  0  0  0  0  0  0  0  0
    3.5220   -0.4499    0.0000 C   0  0  0  0  0  0  0  0  0  0  0  0
    2.8075    0.7876    0.0000 C   0  0  0  0  0  0  0  0  0  0  0  0
    2.8075   -0.0374    0.0000 C   0  0  0  0  0  0  0  0  0  0  0  0
    4.2365   -0.0374    0.0000 C   0  0  0  0  0  0  0  0  0  0  0  0
    4.2365    0.7876    0.0000 C   0  0  0  0  0  0  0  0  0  0  0  0
    3.5220   -1.2749    0.0000 C   0  0  0  0  0  0  0  0  0  0  0  0
    2.0930   -0.4499    0.0000 C   0  0  0  0  0  0  0  0  0  0  0  0
    4.9509   -0.4499    0.0000 C   0  0  0  0  0  0  0  0  0  0  0  0
    2.0931    2.1372    0.0000 H   0  0  0  0  0  0  0  0  0  0  0  0
  1  4  1  0  0  0  0
  1 11  1  0  0  0  0
  2  4  2  0  0  0  0
  2  7  1  0  0  0  0
  3  5  2  0  0  0  0
  3  6  1  0  0  0  0
  3  8  1  0  0  0  0
  4  5  1  0  0  0  0
  5  9  1  0  0  0  0
  6  7  2  0  0  0  0
  6 10  1  0  0  0  0
M  END
$$$$
Clc1ccc(c(c1N)Cl)C
 OpenBabel07182308452D

 11 11  0  0  0  0  0  0  0  0999 V2000
    1.6500   -0.9529    0.0000 Cl  0  0  0  0  0  0  0  0  0  0  0  0
    4.5080   -0.9529    0.0000 Cl  0  0  0  0  0  0  0  0  0  0  0  0
    3.0791   -0.1279    0.0000 N   0  0  0  0  0  0  0  0  0  0  0  0
    3.0791   -0.9529    0.0000 C   0  0  0  0  0  0  0  0  0  0  0  0
    2.3645   -2.1904    0.0000 C   0  0  0  0  0  0  0  0  0  0  0  0
    2.3645   -1.3654    0.0000 C   0  0  0  0  0  0  0  0  0  0  0  0
    3.7935   -1.3654    0.0000 C   0  0  0  0  0  0  0  0  0  0  0  0
    3.0791   -2.6029    0.0000 C   0  0  0  0  0  0  0  0  0  0  0  0
    3.7935   -2.1904    0.0000 C   0  0  0  0  0  0  0  0  0  0  0  0
    1.6500   -2.6029    0.0000 C   0  0  0  0  0  0  0  0  0  0  0  0
    2.2265    0.3643    0.0000 H   0  0  0  0  0  0  0  0  0  0  0  0
  1  6  1  0  0  0  0
  2  7  1  0  0  0  0
  3  4  1  0  0  0  0
  3 11  1  0  0  0  0
  4  6  1  0  0  0  0
  4  7  2  0  0  0  0
  5  6  2  0  0  0  0
  5  8  1  0  0  0  0
  5 10  1  0  0  0  0
  7  9  1  0  0  0  0
  8  9  2  0  0  0  0
M  END
$$$$
c1ccc2c(c1)Cc1c2cccc1
 OpenBabel07182308452D

 13 15  0  0  0  0  0  0  0  0999 V2000
    2.6483    0.7941    0.0000 C   0  0  0  0  0  0  0  0  0  0  0  0
    3.4767    0.8819    0.0000 C   0  0  0  0  0  0  0  0  0  0  0  0
    2.4876   -0.0244    0.0000 C   0  0  0  0  0  0  0  0  0  0  0  0
    3.8129    0.1267    0.0000 C   0  0  0  0  0  0  0  0  0  0  0  0
    3.2038   -0.4337    0.0000 C   0  0  0  0  0  0  0  0  0  0  0  0
    3.9494    1.5447    0.0000 C   0  0  0  0  0  0  0  0  0  0  0  0
    1.7712   -0.4433    0.0000 C   0  0  0  0  0  0  0  0  0  0  0  0
    4.6315    0.0486    0.0000 C   0  0  0  0  0  0  0  0  0  0  0  0
    3.2135   -1.2523    0.0000 C   0  0  0  0  0  0  0  0  0  0  0  0
    4.7680    1.4666    0.0000 C   0  0  0  0  0  0  0  0  0  0  0  0
    1.7859   -1.2669    0.0000 C   0  0  0  0  0  0  0  0  0  0  0  0
    2.5021   -1.6713    0.0000 C   0  0  0  0  0  0  0  0  0  0  0  0
    5.1139    0.7114    0.0000 C   0  0  0  0  0  0  0  0  0  0  0  0
  2  1  1  0  0  0  0
  3  1  1  0  0  0  0
  4  2  2  0  0  0  0
  4  5  1  0  0  0  0
  5  3  2  0  0  0  0
  6  2  1  0  0  0  0
  7  3  1  0  0  0  0
  8  4  1  0  0  0  0
  9  5  1  0  0  0  0
  9 12  2  0  0  0  0
 10  6  2  0  0  0  0
 11  7  2  0  0  0  0
 12 11  1  0  0  0  0
 13 10  1  0  0  0  0
 13  8  2  0  0  0  0
M  END
$$$$
C[NH+](C)C
 OpenBabel07182308452D

  4  3  0  0  0  0  0  0  0  0999 V2000
    1.9320    1.2035    0.0000 N   0  3  0  0  0  0  0  0  0  0  0  0
    1.2157    0.7941    0.0000 C   0  0  0  0  0  0  0  0  0  0  0  0
    2.3413    1.9247    0.0000 C   0  0  0  0  0  0  0  0  0  0  0  0
    1.5081    1.9247    0.0000 C   0  0  0  0  0  0  0  0  0  0  0  0
  2  1  1  0  0  0  0
  3  1  1  0  0  0  0
  4  1  1  0  0  0  0
M  CHG  1   1   1
M  END
$$$$
C[C@@H]1Cc2cc(O)ccc2[C@@H]2[C@@H]1[C@@H]1CC[C@@H]([C@]1(CC2)C)O
 OpenBabel07182308452D

 26 29  0  0  0  0  0  0  0  0999 V2000
   -2.1426    1.5020    0.0000 C   0  0  0  0  0  0  0  0  0  0  0  0
   -2.8573    1.0895    0.0000 C   0  0  0  0  0  0  0  0  0  0  0  0
   -2.8573    0.2644    0.0000 C   0  0  0  0  0  0  0  0  0  0  0  0
   -2.1426   -0.1480    0.0000 C   0  0  0  0  0  0  0  0  0  0  0  0
   -1.4282    0.2644    0.0000 C   0  0  0  0  0  0  0  0  0  0  0  0
   -1.4282    1.0895    0.0000 C   0  0  0  0  0  0  0  0  0  0  0  0
   -0.7137    1.5020    0.0000 C   0  0  2  0  0  0  0  0  0  0  0  0
   -0.7137   -0.1480    0.0000 C   0  0  0  0  0  0  0  0  0  0  0  0
    0.0007    0.2644    0.0000 C   0  0  2  0  0  0  0  0  0  0  0  0
    0.0007    1.0895    0.0000 C   0  0  1  0  0  0  0  0  0  0  0  0
    0.0007    2.7394    0.0000 C   0  0  0  0  0  0  0  0  0  0  0  0
   -0.7137    2.3270    0.0000 C   0  0  0  0  0  0  0  0  0  0  0  0
    0.7152    1.5020    0.0000 C   0  0  1  0  0  0  0  0  0  0  0  0
    0.7152    2.3270    0.0000 C   0  0  1  0  0  0  0  0  0  0  0  0
    1.4998    2.5820    0.0000 C   0  0  2  0  0  0  0  0  0  0  0  0
    1.4998    1.2470    0.0000 C   0  0  0  0  0  0  0  0  0  0  0  0
    1.9847    1.9145    0.0000 C   0  0  0  0  0  0  0  0  0  0  0  0
   -3.5717   -0.1480    0.0000 O   0  0  0  0  0  0  0  0  0  0  0  0
   -0.7137    0.6769    0.0000 H   0  0  0  0  0  0  0  0  0  0  0  0
    0.7152    0.6769    0.0000 H   0  0  0  0  0  0  0  0  0  0  0  0
    0.7152   -0.1480    0.0000 C   0  0  0  0  0  0  0  0  0  0  0  0
    1.7132    3.3788    0.0000 O   0  0  0  0  0  0  0  0  0  0  0  0
    0.7152    3.1520    0.0000 C   0  0  0  0  0  0  0  0  0  0  0  0
    0.0038    1.9099    0.0000 H   0  0  0  0  0  0  0  0  0  0  0  0
   -4.3831    0.3206    0.0000 H   0  0  0  0  0  0  0  0  0  0  0  0
    2.6501    3.6300    0.0000 H   0  0  0  0  0  0  0  0  0  0  0  0
  1  2  1  0  0  0  0
  1  6  2  0  0  0  0
  2  3  2  0  0  0  0
  3  4  1  0  0  0  0
  3 18  1  0  0  0  0
  4  5  2  0  0  0  0
  5  8  1  0  0  0  0
  6  5  1  0  0  0  0
  7  6  1  0  0  0  0
  7 12  1  0  0  0  0
  7 10  1  1  0  0  0
  7 19  1  0  0  0  0
  8  9  1  0  0  0  0
  9 10  1  6  0  0  0
  9 21  1  0  0  0  0
 10 13  1  6  0  0  0
 10 24  1  0  0  0  0
 11 12  1  0  0  0  0
 11 14  1  0  0  0  0
 13 14  1  6  0  0  0
 13 16  1  0  0  0  0
 13 20  1  0  0  0  0
 14 23  1  1  0  0  0
 15 14  1  1  0  0  0
 15 17  1  0  0  0  0
 15 22  1  0  0  0  0
 16 17  1  0  0  0  0
 18 25  1  0  0  0  0
 22 26  1  0  0  0  0
M  END
$$$$
O=C1NCCN1
 OpenBabel07182308452D

  6  6  0  0  1  0  0  0  0  0999 V2000
    5.3520    1.7554    0.0000 O   0  0  0  0  0  0  0  0  0  0  0  0
    3.8902    1.9121    0.0000 N   0  0  0  0  0  0  0  0  0  0  0  0
    4.6195    3.0301    0.0000 N   0  0  0  0  0  0  0  0  0  0  0  0
    3.3723    2.5543    0.0000 C   0  0  0  0  0  0  0  0  0  0  0  0
    3.8231    3.2452    0.0000 C   0  0  0  0  0  0  0  0  0  0  0  0
    4.6610    2.2061    0.0000 C   0  0  0  0  0  0  0  0  0  0  0  0
  1  6  2  0  0  0  0
  2  4  1  0  0  0  0
  2  6  1  0  0  0  0
  3  5  1  0  0  0  0
  3  6  1  0  0  0  0
  4  5  1  0  0  0  0
M  END
$$$$
Cc1ccc2c(c1)cc[nH]2
 OpenBabel07182308452D

 11 12  0  0  0  0  0  0  0  0999 V2000
    7.4321   -1.9892    0.0000 N   0  0  0  0  0  0  0  0  0  0  0  0
    7.4321   -0.6613    0.0000 C   0  0  0  0  0  0  0  0  0  0  0  0
    6.6515   -0.9128    0.0000 C   0  0  0  0  0  0  0  0  0  0  0  0
    7.9136   -1.3253    0.0000 C   0  0  0  0  0  0  0  0  0  0  0  0
    6.6515   -1.7378    0.0000 C   0  0  0  0  0  0  0  0  0  0  0  0
    5.9370   -0.5003    0.0000 C   0  0  0  0  0  0  0  0  0  0  0  0
    5.2224   -0.9128    0.0000 C   0  0  0  0  0  0  0  0  0  0  0  0
    5.9370   -2.1503    0.0000 C   0  0  0  0  0  0  0  0  0  0  0  0
    4.5080   -0.5003    0.0000 C   0  0  0  0  0  0  0  0  0  0  0  0
    5.2224   -1.7378    0.0000 C   0  0  0  0  0  0  0  0  0  0  0  0
    7.7379   -2.9250    0.0000 H   0  0  0  0  0  0  0  0  0  0  0  0
  1  4  1  0  0  0  0
  1  5  1  0  0  0  0
  1 11  1  0  0  0  0
  2  3  1  0  0  0  0
  2  4  2  0  0  0  0
  3  5  2  0  0  0  0
  3  6  1  0  0  0  0
  5  8  1  0  0  0  0
  6  7  2  0  0  0  0
  7  9  1  0  0  0  0
  7 10  1  0  0  0  0
  8 10  2  0  0  0  0
M  END
$$$$
CN1CC[C@@]23[C@@H]4[C@H]1Cc1c3c(O[C@H]2C(=O)CC4)ccc1
 OpenBabel07182308452D

 23 27  0  0  1  0  0  0  0  0999 V2000
    1.9356   -0.3879    0.0000 O   0  0  0  0  0  0  0  0  0  0  0  0
    1.7349   -2.5175    0.0000 O   0  0  0  0  0  0  0  0  0  0  0  0
    5.3440   -1.2588    0.0000 N   0  0  0  0  0  0  0  0  0  0  0  0
    3.2006   -0.8462    0.0000 C   0  0  1  0  0  0  0  0  0  0  0  0
    3.9151   -1.2588    0.0000 C   0  0  2  0  0  0  0  0  0  0  0  0
    4.6296   -0.8462    0.0000 C   0  0  1  0  0  0  0  0  0  0  0  0
    2.4861   -1.2588    0.0000 C   0  0  2  0  0  0  0  0  0  0  0  0
    3.6773   -0.2412    0.0000 C   0  0  0  0  0  0  0  0  0  0  0  0
    3.2006   -0.0213    0.0000 C   0  0  0  0  0  0  0  0  0  0  0  0
    3.9151   -2.0838    0.0000 C   0  0  0  0  0  0  0  0  0  0  0  0
    4.6296   -0.0213    0.0000 C   0  0  0  0  0  0  0  0  0  0  0  0
    4.8506   -0.2412    0.0000 C   0  0  0  0  0  0  0  0  0  0  0  0
    3.9151    0.3913    0.0000 C   0  0  0  0  0  0  0  0  0  0  0  0
    3.2006   -2.4963    0.0000 C   0  0  0  0  0  0  0  0  0  0  0  0
    2.4861   -2.0838    0.0000 C   0  0  0  0  0  0  0  0  0  0  0  0
    2.4861    0.3913    0.0000 C   0  0  0  0  0  0  0  0  0  0  0  0
    5.9350   -1.8938    0.0000 C   0  0  0  0  0  0  0  0  0  0  0  0
    3.9151    1.2163    0.0000 C   0  0  0  0  0  0  0  0  0  0  0  0
    2.4861    1.2163    0.0000 C   0  0  0  0  0  0  0  0  0  0  0  0
    3.2006    1.6288    0.0000 C   0  0  0  0  0  0  0  0  0  0  0  0
    4.3612   -1.7903    0.0000 H   0  0  0  0  0  0  0  0  0  0  0  0
    4.8675   -1.4982    0.0000 H   0  0  0  0  0  0  0  0  0  0  0  0
    1.8196   -1.4518    0.0000 H   0  0  0  0  0  0  0  0  0  0  0  0
  1  7  1  0  0  0  0
  1 16  1  0  0  0  0
  2 15  2  0  0  0  0
  3  6  1  0  0  0  0
  3 12  1  0  0  0  0
  3 17  1  0  0  0  0
  4  5  1  6  0  0  0
  4  8  1  0  0  0  0
  4  9  1  0  0  0  0
  5  6  1  6  0  0  0
  5 10  1  0  0  0  0
  5 21  1  0  0  0  0
  6 11  1  0  0  0  0
  6 22  1  6  0  0  0
  7  4  1  1  0  0  0
  7 15  1  0  0  0  0
  7 23  1  0  0  0  0
  8 12  1  0  0  0  0
  9 13  2  0  0  0  0
  9 16  1  0  0  0  0
 10 14  1  0  0  0  0
 11 13  1  0  0  0  0
 13 18  1  0  0  0  0
 14 15  1  0  0  0  0
 16 19  2  0  0  0  0
 18 20  2  0  0  0  0
 19 20  1  0  0  0  0
M  END
$$$$
O/N=C/1\CC[C@H]2C(=C1)CC[C@@H]1[C@@H]2CCC2[C@H]1CC[C@@]2(O)C#C
 OpenBabel07182308452D

 27 30  0  0  0  0  0  0  0  0999 V2000
    2.1785   -1.0011    0.0000 C   0  0  0  0  0  0  0  0  0  0  0  0
    0.6794   -1.9837    0.0000 C   0  0  0  0  0  0  0  0  0  0  0  0
    2.1785    0.3337    0.0000 C   0  0  2  0  0  0  0  0  0  0  0  0
    0.6794    0.4912    0.0000 C   0  0  0  0  0  0  0  0  0  0  0  0
    2.6633   -0.3337    0.0000 C   0  0  0  0  0  0  0  0  0  0  0  0
   -0.7496   -1.1587    0.0000 C   0  0  2  0  0  0  0  0  0  0  0  0
   -0.0350    0.0787    0.0000 C   0  0  0  0  0  0  0  0  0  0  0  0
   -0.0350   -2.3962    0.0000 C   0  0  0  0  0  0  0  0  0  0  0  0
   -0.7496   -1.9837    0.0000 C   0  0  0  0  0  0  0  0  0  0  0  0
   -1.4641   -0.7462    0.0000 C   0  0  0  0  0  0  0  0  0  0  0  0
   -1.4641   -2.3962    0.0000 C   0  0  0  0  0  0  0  0  0  0  0  0
   -2.1785   -1.1587    0.0000 C   0  0  0  0  0  0  0  0  0  0  0  0
    0.6794   -1.1587    0.0000 C   0  0  2  0  0  0  0  0  0  0  0  0
    0.6794   -0.3337    0.0000 H   0  0  0  0  0  0  0  0  0  0  0  0
   -0.0350   -0.7462    0.0000 C   0  0  1  0  0  0  0  0  0  0  0  0
   -0.0350   -1.5712    0.0000 H   0  0  0  0  0  0  0  0  0  0  0  0
    1.3938    0.0787    0.0000 C   0  0  3  0  0  0  0  0  0  0  0  0
    1.3938   -0.7462    0.0000 C   0  0  1  0  0  0  0  0  0  0  0  0
    1.3938   -1.5712    0.0000 H   0  0  0  0  0  0  0  0  0  0  0  0
   -2.1785   -1.9837    0.0000 C   0  0  0  0  0  0  0  0  0  0  0  0
   -0.7496   -0.3337    0.0000 H   0  0  0  0  0  0  0  0  0  0  0  0
    2.8930    0.7462    0.0000 C   0  0  0  0  0  0  0  0  0  0  0  0
    2.1785    1.1587    0.0000 O   0  0  0  0  0  0  0  0  0  0  0  0
    3.6074    1.1587    0.0000 C   0  0  0  0  0  0  0  0  0  0  0  0
   -2.8930   -2.3962    0.0000 N   0  0  0  0  0  0  0  0  0  0  0  0
   -3.6074   -1.9837    0.0000 O   0  0  0  0  0  0  0  0  0  0  0  0
   -3.6074   -1.0467    0.0000 H   0  0  0  0  0  0  0  0  0  0  0  0
  2  8  1  0  0  0  0
  3  5  1  0  0  0  0
  3 22  1  0  0  0  0
  3 23  1  1  0  0  0
  4  7  1  0  0  0  0
  5  1  1  0  0  0  0
  6 15  1  6  0  0  0
  6  9  1  0  0  0  0
  6 10  1  0  0  0  0
  6 21  1  0  0  0  0
  8  9  1  0  0  0  0
  9 11  2  0  0  0  0
 10 12  1  0  0  0  0
 11 20  1  0  0  0  0
 12 20  1  0  0  0  0
 13 18  1  6  0  0  0
 13  2  1  0  0  0  0
 13 14  1  0  0  0  0
 15 13  1  1  0  0  0
 15  7  1  0  0  0  0
 15 16  1  0  0  0  0
 17  3  1  0  0  0  0
 17  4  1  0  0  0  0
 18 17  1  0  0  0  0
 18  1  1  0  0  0  0
 18 19  1  6  0  0  0
 20 25  2  0  0  0  0
 22 24  3  0  0  0  0
 25 26  1  0  0  0  0
 26 27  1  0  0  0  0
M  END
$$$$
O=C1O[Pt](N)(N)OC(=O)C21CCC2
 OpenBabel07182308452D

 21 22  0  0  0  0  0  0  0  0999 V2000
    0.6592    0.3771    0.0000 O   0  0  0  0  0  0  0  0  0  0  0  0
   -0.7696    0.3771    0.0000 O   0  0  0  0  0  0  0  0  0  0  0  0
   -0.7696   -0.4478    0.0000 C   0  0  0  0  0  0  0  0  0  0  0  0
   -1.4842   -0.8603    0.0000 O   0  0  0  0  0  0  0  0  0  0  0  0
    0.6592   -0.4478    0.0000 C   0  0  0  0  0  0  0  0  0  0  0  0
    1.3737   -0.8603    0.0000 O   0  0  0  0  0  0  0  0  0  0  0  0
   -0.0552   -0.8603    0.0000 C   0  0  0  0  0  0  0  0  0  0  0  0
    0.5281   -1.4437    0.0000 C   0  0  0  0  0  0  0  0  0  0  0  0
   -0.6385   -1.4437    0.0000 C   0  0  0  0  0  0  0  0  0  0  0  0
   -0.0552   -2.0271    0.0000 C   0  0  0  0  0  0  0  0  0  0  0  0
    0.6592    2.0271    0.0000 H   0  0  0  0  0  0  0  0  0  0  0  0
    1.4842    1.2021    0.0000 H   0  0  0  0  0  0  0  0  0  0  0  0
   -0.0552    0.7896    0.0000 Pt  0  0  0  0  0  0  0  0  0  0  0  0
   -1.4842    0.7896    0.0000 H   0  0  0  0  0  0  0  0  0  0  0  0
   -0.7696    2.0271    0.0000 H   0  0  0  0  0  0  0  0  0  0  0  0
   -0.7696    1.2021    0.0000 N   0  0  0  0  0  0  0  0  0  0  0  0
   -1.1822    1.9166    0.0000 H   0  0  0  0  0  0  0  0  0  0  0  0
    0.6592    1.2021    0.0000 N   0  0  0  0  0  0  0  0  0  0  0  0
    1.3737    0.7896    0.0000 H   0  0  0  0  0  0  0  0  0  0  0  0
   -0.3610    0.2675    0.0000 H   0  0  0  0  0  0  0  0  0  0  0  0
    1.4635    0.5748    0.0000 H   0  0  0  0  0  0  0  0  0  0  0  0
  1  5  1  0  0  0  0
  3  2  1  0  0  0  0
  3  4  2  0  0  0  0
  5  7  1  0  0  0  0
  5  6  2  0  0  0  0
  7  3  1  0  0  0  0
  7  8  1  0  0  0  0
  7  9  1  0  0  0  0
  8 10  1  0  0  0  0
  9 10  1  0  0  0  0
 13  1  1  0  0  0  0
 13  2  1  0  0  0  0
 13 18  1  0  0  0  0
 13 16  1  0  0  0  0
 16 14  1  0  0  0  0
 16 15  1  0  0  0  0
 16 17  1  0  0  0  0
 16 20  1  0  0  0  0
 18 11  1  0  0  0  0
 18 12  1  0  0  0  0
 18 19  1  0  0  0  0
 18 21  1  0  0  0  0
M  END
$$$$
O=C1C=C[C@]2(C(=C1)[C@@H](C)C[C@@H]1[C@@H]2[C@@H](O)C[C@]2([C@H]1CC[C@H]2O)C)C
 OpenBabel07182308452D

 28 31  0  0  0  0  0  0  0  0999 V2000
    2.1785   -0.5887    0.0000 C   0  0  0  0  0  0  0  0  0  0  0  0
    0.6794   -1.5712    0.0000 C   0  0  0  0  0  0  0  0  0  0  0  0
    2.1785    0.7461    0.0000 C   0  0  2  0  0  0  0  0  0  0  0  0
    0.6794    0.9036    0.0000 C   0  0  0  0  0  0  0  0  0  0  0  0
    2.6635    0.0786    0.0000 C   0  0  0  0  0  0  0  0  0  0  0  0
   -0.7495   -0.7462    0.0000 C   0  0  2  0  0  0  0  0  0  0  0  0
   -0.0350    0.4911    0.0000 C   0  0  1  0  0  0  0  0  0  0  0  0
   -0.0350   -1.9838    0.0000 C   0  0  1  0  0  0  0  0  0  0  0  0
   -0.7495   -1.5712    0.0000 C   0  0  0  0  0  0  0  0  0  0  0  0
   -1.4640   -0.3338    0.0000 C   0  0  0  0  0  0  0  0  0  0  0  0
   -1.4640   -1.9838    0.0000 C   0  0  0  0  0  0  0  0  0  0  0  0
   -2.1783   -0.7462    0.0000 C   0  0  0  0  0  0  0  0  0  0  0  0
    0.6794   -0.7462    0.0000 C   0  0  2  0  0  0  0  0  0  0  0  0
    0.6794    0.0786    0.0000 H   0  0  0  0  0  0  0  0  0  0  0  0
   -0.0350   -0.3338    0.0000 C   0  0  1  0  0  0  0  0  0  0  0  0
   -0.0350   -1.1588    0.0000 H   0  0  0  0  0  0  0  0  0  0  0  0
    1.3938    0.4911    0.0000 C   0  0  2  0  0  0  0  0  0  0  0  0
    1.3938    1.3161    0.0000 C   0  0  0  0  0  0  0  0  0  0  0  0
    1.3938   -0.3338    0.0000 C   0  0  1  0  0  0  0  0  0  0  0  0
    1.3938   -1.1588    0.0000 H   0  0  0  0  0  0  0  0  0  0  0  0
   -2.8929   -1.9838    0.0000 O   0  0  0  0  0  0  0  0  0  0  0  0
   -2.1783   -1.5712    0.0000 C   0  0  0  0  0  0  0  0  0  0  0  0
   -0.7495    0.0786    0.0000 C   0  0  0  0  0  0  0  0  0  0  0  0
    2.8929    1.1587    0.0000 O   0  0  0  0  0  0  0  0  0  0  0  0
   -0.7495    0.9036    0.0000 O   0  0  0  0  0  0  0  0  0  0  0  0
   -0.0350   -2.8088    0.0000 C   0  0  0  0  0  0  0  0  0  0  0  0
    3.7330    0.6738    0.0000 H   0  0  0  0  0  0  0  0  0  0  0  0
   -0.7495    1.8736    0.0000 H   0  0  0  0  0  0  0  0  0  0  0  0
  2  8  1  0  0  0  0
  3 17  1  6  0  0  0
  3  5  1  0  0  0  0
  3 24  1  0  0  0  0
  4  7  1  0  0  0  0
  5  1  1  0  0  0  0
  6 15  1  6  0  0  0
  6  9  1  0  0  0  0
  6 10  1  0  0  0  0
  6 23  1  0  0  0  0
  7 15  1  1  0  0  0
  7 25  1  0  0  0  0
  8  9  1  0  0  0  0
  8 26  1  6  0  0  0
  9 11  2  0  0  0  0
 10 12  2  0  0  0  0
 11 22  1  0  0  0  0
 12 22  1  0  0  0  0
 13 19  1  6  0  0  0
 13  2  1  0  0  0  0
 13 14  1  0  0  0  0
 15 13  1  1  0  0  0
 15 16  1  0  0  0  0
 17 19  1  1  0  0  0
 17  4  1  0  0  0  0
 17 18  1  0  0  0  0
 19  1  1  0  0  0  0
 19 20  1  6  0  0  0
 22 21  2  0  0  0  0
 24 27  1  0  0  0  0
 25 28  1  0  0  0  0
M  END
$$$$
N#Cc1cnn2c1nccc2
 OpenBabel07182308452D

 11 12  0  0  0  0  0  0  0  0999 V2000
    3.0791   -0.7401    0.0000 N   0  0  0  0  0  0  0  0  0  0  0  0
    3.8597   -0.4887    0.0000 N   0  0  0  0  0  0  0  0  0  0  0  0
    2.3645   -1.9777    0.0000 N   0  0  0  0  0  0  0  0  0  0  0  0
    4.3723   -3.3850    0.0000 N   0  0  0  0  0  0  0  0  0  0  0  0
    2.3645   -0.3276    0.0000 C   0  0  0  0  0  0  0  0  0  0  0  0
    3.0791   -1.5651    0.0000 C   0  0  0  0  0  0  0  0  0  0  0  0
    1.6500   -0.7401    0.0000 C   0  0  0  0  0  0  0  0  0  0  0  0
    3.8597   -1.8165    0.0000 C   0  0  0  0  0  0  0  0  0  0  0  0
    1.6500   -1.5651    0.0000 C   0  0  0  0  0  0  0  0  0  0  0  0
    4.3412   -1.1526    0.0000 C   0  0  0  0  0  0  0  0  0  0  0  0
    4.1159   -2.6008    0.0000 C   0  0  0  0  0  0  0  0  0  0  0  0
  1  2  1  0  0  0  0
  1  5  1  0  0  0  0
  1  6  1  0  0  0  0
  2 10  2  0  0  0  0
  3  6  1  0  0  0  0
  3  9  2  0  0  0  0
  4 11  3  0  0  0  0
  5  7  2  0  0  0  0
  6  8  2  0  0  0  0
  7  9  1  0  0  0  0
  8 10  1  0  0  0  0
  8 11  1  0  0  0  0
M  END
$$$$
Nc1cc(Cl)cc(c1)Cl
 OpenBabel07182308452D

 11 11  0  0  0  0  0  0  0  0999 V2000
    1.6500    0.1653    0.0000 Cl  0  0  0  0  0  0  0  0  0  0  0  0
    4.5080    0.1653    0.0000 Cl  0  0  0  0  0  0  0  0  0  0  0  0
    3.0791   -2.3098    0.0000 N   0  0  0  0  0  0  0  0  0  0  0  0
    3.0791    0.1653    0.0000 C   0  0  0  0  0  0  0  0  0  0  0  0
    2.3645   -0.2473    0.0000 C   0  0  0  0  0  0  0  0  0  0  0  0
    3.7935   -0.2473    0.0000 C   0  0  0  0  0  0  0  0  0  0  0  0
    3.0791   -1.4848    0.0000 C   0  0  0  0  0  0  0  0  0  0  0  0
    2.3645   -1.0723    0.0000 C   0  0  0  0  0  0  0  0  0  0  0  0
    3.7935   -1.0723    0.0000 C   0  0  0  0  0  0  0  0  0  0  0  0
    2.2265   -2.8021    0.0000 H   0  0  0  0  0  0  0  0  0  0  0  0
    3.9317   -2.8020    0.0000 H   0  0  0  0  0  0  0  0  0  0  0  0
  1  5  1  0  0  0  0
  2  6  1  0  0  0  0
  3  7  1  0  0  0  0
  3 10  1  0  0  0  0
  3 11  1  0  0  0  0
  4  5  2  0  0  0  0
  4  6  1  0  0  0  0
  5  8  1  0  0  0  0
  6  9  2  0  0  0  0
  7  8  2  0  0  0  0
  7  9  1  0  0  0  0
M  END
$$$$
Cc1nc2c(n1C)cccc2C
 OpenBabel07182308452D

 12 13  0  0  0  0  0  0  0  0999 V2000
    7.1110   -0.8569    0.0000 N   0  0  0  0  0  0  0  0  0  0  0  0
    7.1110   -2.1848    0.0000 N   0  0  0  0  0  0  0  0  0  0  0  0
    6.3303   -1.1084    0.0000 C   0  0  0  0  0  0  0  0  0  0  0  0
    7.5925   -1.5209    0.0000 C   0  0  0  0  0  0  0  0  0  0  0  0
    6.3303   -1.9334    0.0000 C   0  0  0  0  0  0  0  0  0  0  0  0
    7.3672   -0.0728    0.0000 C   0  0  0  0  0  0  0  0  0  0  0  0
    8.4175   -1.5209    0.0000 C   0  0  0  0  0  0  0  0  0  0  0  0
    4.9014   -1.1084    0.0000 C   0  0  0  0  0  0  0  0  0  0  0  0
    5.6158   -0.6959    0.0000 C   0  0  0  0  0  0  0  0  0  0  0  0
    5.6158   -2.3459    0.0000 C   0  0  0  0  0  0  0  0  0  0  0  0
    4.9014   -1.9334    0.0000 C   0  0  0  0  0  0  0  0  0  0  0  0
    5.6158   -3.1710    0.0000 C   0  0  0  0  0  0  0  0  0  0  0  0
  1  3  1  0  0  0  0
  1  4  1  0  0  0  0
  1  6  1  0  0  0  0
  2  4  2  0  0  0  0
  2  5  1  0  0  0  0
  3  5  2  0  0  0  0
  3  9  1  0  0  0  0
  4  7  1  0  0  0  0
  5 10  1  0  0  0  0
  8  9  2  0  0  0  0
  8 11  1  0  0  0  0
 10 11  2  0  0  0  0
 10 12  1  0  0  0  0
M  END
$$$$
CN1CCc2c(C1=O)c1ccccc1n2C
 OpenBabel07182308452D

 16 18  0  0  0  0  0  0  0  0999 V2000
    4.2709   -1.6687    0.0000 O   0  0  0  0  0  0  0  0  0  0  0  0
    5.3327   -0.7530    0.0000 N   0  0  0  0  0  0  0  0  0  0  0  0
    3.5859    0.9221    0.0000 N   0  0  0  0  0  0  0  0  0  0  0  0
    4.2266    0.4565    0.0000 C   0  0  0  0  0  0  0  0  0  0  0  0
    5.0309    0.6405    0.0000 C   0  0  0  0  0  0  0  0  0  0  0  0
    3.9819   -0.2967    0.0000 C   0  0  0  0  0  0  0  0  0  0  0  0
    5.5876    0.0317    0.0000 C   0  0  0  0  0  0  0  0  0  0  0  0
    3.1899   -0.2967    0.0000 C   0  0  0  0  0  0  0  0  0  0  0  0
    2.9450    0.4565    0.0000 C   0  0  0  0  0  0  0  0  0  0  0  0
    4.5243   -0.9183    0.0000 C   0  0  0  0  0  0  0  0  0  0  0  0
    5.8604   -1.3436    0.0000 C   0  0  0  0  0  0  0  0  0  0  0  0
    3.5859    1.7142    0.0000 C   0  0  0  0  0  0  0  0  0  0  0  0
    2.6473   -0.9183    0.0000 C   0  0  0  0  0  0  0  0  0  0  0  0
    2.1408    0.6405    0.0000 C   0  0  0  0  0  0  0  0  0  0  0  0
    1.8391   -0.7530    0.0000 C   0  0  0  0  0  0  0  0  0  0  0  0
    1.5841    0.0317    0.0000 C   0  0  0  0  0  0  0  0  0  0  0  0
  1 10  2  0  0  0  0
  2  7  1  0  0  0  0
  2 10  1  0  0  0  0
  2 11  1  0  0  0  0
  3  4  1  0  0  0  0
  3  9  1  0  0  0  0
  3 12  1  0  0  0  0
  4  5  1  0  0  0  0
  4  6  2  0  0  0  0
  5  7  1  0  0  0  0
  6  8  1  0  0  0  0
  6 10  1  0  0  0  0
  8  9  1  0  0  0  0
  8 13  2  0  0  0  0
  9 14  2  0  0  0  0
 13 15  1  0  0  0  0
 14 16  1  0  0  0  0
 15 16  2  0  0  0  0
M  END
$$$$
Cc1cnc[nH]1
 OpenBabel07182308452D

  7  7  0  0  0  0  0  0  0  0999 V2000
    7.2223   -1.7142    0.0000 N   0  0  0  0  0  0  0  0  0  0  0  0
    7.7481   -0.5454    0.0000 N   0  0  0  0  0  0  0  0  0  0  0  0
    6.6357   -1.1819    0.0000 C   0  0  0  0  0  0  0  0  0  0  0  0
    6.9607   -0.4596    0.0000 C   0  0  0  0  0  0  0  0  0  0  0  0
    6.5673    0.2279    0.0000 C   0  0  0  0  0  0  0  0  0  0  0  0
    7.9098   -1.3208    0.0000 C   0  0  0  0  0  0  0  0  0  0  0  0
    8.4097    0.1837    0.0000 H   0  0  0  0  0  0  0  0  0  0  0  0
  1  3  1  0  0  0  0
  1  6  2  0  0  0  0
  2  4  1  0  0  0  0
  2  6  1  0  0  0  0
  2  7  1  0  0  0  0
  3  4  2  0  0  0  0
  4  5  1  0  0  0  0
M  END
$$$$
O=c1c(N)cc2c(c1C)oc1c(n2)cccc1C
 OpenBabel07182308452D

 20 22  0  0  0  0  0  0  0  0999 V2000
    0.7145    0.4125    0.0000 C   0  0  0  0  0  0  0  0  0  0  0  0
    0.7145   -0.4125    0.0000 C   0  0  0  0  0  0  0  0  0  0  0  0
    0.0000   -0.8250    0.0000 O   0  0  0  0  0  0  0  0  0  0  0  0
   -0.7145    0.4125    0.0000 C   0  0  0  0  0  0  0  0  0  0  0  0
   -0.7145   -0.4125    0.0000 C   0  0  0  0  0  0  0  0  0  0  0  0
    0.0000    0.8250    0.0000 N   0  0  0  0  0  0  0  0  0  0  0  0
    1.4289    0.8250    0.0000 C   0  0  0  0  0  0  0  0  0  0  0  0
    1.4289   -0.8250    0.0000 C   0  0  0  0  0  0  0  0  0  0  0  0
    2.1434    0.4125    0.0000 C   0  0  0  0  0  0  0  0  0  0  0  0
    2.1434   -0.4125    0.0000 C   0  0  0  0  0  0  0  0  0  0  0  0
    1.4289   -1.6500    0.0000 C   0  0  0  0  0  0  0  0  0  0  0  0
    2.8579    0.8250    0.0000 N   0  0  0  0  0  0  0  0  0  0  0  0
   -1.4289    0.8250    0.0000 C   0  0  0  0  0  0  0  0  0  0  0  0
   -1.4289   -0.8250    0.0000 C   0  0  0  0  0  0  0  0  0  0  0  0
    2.8579   -0.8250    0.0000 O   0  0  0  0  0  0  0  0  0  0  0  0
   -2.1434    0.4125    0.0000 C   0  0  0  0  0  0  0  0  0  0  0  0
   -2.1434   -0.4125    0.0000 C   0  0  0  0  0  0  0  0  0  0  0  0
   -1.4289   -1.6500    0.0000 C   0  0  0  0  0  0  0  0  0  0  0  0
    3.7105    0.3327    0.0000 H   0  0  0  0  0  0  0  0  0  0  0  0
    2.8579    1.8095    0.0000 H   0  0  0  0  0  0  0  0  0  0  0  0
  2  1  1  0  0  0  0
  3  2  1  0  0  0  0
  4  6  1  0  0  0  0
  5  3  1  0  0  0  0
  5  4  1  0  0  0  0
  6  1  2  0  0  0  0
  7  1  1  0  0  0  0
  8  2  2  0  0  0  0
  9  7  2  0  0  0  0
 10  8  1  0  0  0  0
 10  9  1  0  0  0  0
 11  8  1  0  0  0  0
 12  9  1  0  0  0  0
 12 19  1  0  0  0  0
 12 20  1  0  0  0  0
 13  4  2  0  0  0  0
 14  5  2  0  0  0  0
 15 10  2  0  0  0  0
 16 13  1  0  0  0  0
 17 14  1  0  0  0  0
 17 16  2  0  0  0  0
 18 14  1  0  0  0  0
M  END
$$$$
O=C1NCC(=O)N2CCC[C@H]2C(=O)N(C)CC(=O)N(CC(=O)O[C@@H](C1)C)C
 OpenBabel07182308452D

 29 30  0  0  0  0  0  0  0  0999 V2000
   -2.1434    2.8875    0.0000 C   0  0  0  0  0  0  0  0  0  0  0  0
   -1.4289    3.3000    0.0000 C   0  0  0  0  0  0  0  0  0  0  0  0
   -2.8579    3.3000    0.0000 C   0  0  2  0  0  0  0  0  0  0  0  0
   -3.5724    2.8875    0.0000 O   0  0  0  0  0  0  0  0  0  0  0  0
   -4.2868    3.3000    0.0000 C   0  0  0  0  0  0  0  0  0  0  0  0
   -5.0013    7.0125    0.0000 N   0  0  0  0  0  0  0  0  0  0  0  0
   -5.1728    7.8195    0.0000 C   0  0  0  0  0  0  0  0  0  0  0  0
   -5.7158    6.6000    0.0000 C   0  0  1  0  0  0  0  0  0  0  0  0
   -5.9933    7.9057    0.0000 C   0  0  0  0  0  0  0  0  0  0  0  0
   -6.3289    7.1520    0.0000 C   0  0  0  0  0  0  0  0  0  0  0  0
   -6.3990    6.1377    0.0000 H   0  0  0  0  0  0  0  0  0  0  0  0
   -5.7158    5.7750    0.0000 C   0  0  0  0  0  0  0  0  0  0  0  0
   -6.4302    5.3625    0.0000 N   0  0  0  0  0  0  0  0  0  0  0  0
   -6.4302    4.5375    0.0000 C   0  0  0  0  0  0  0  0  0  0  0  0
   -7.1447    5.7750    0.0000 C   0  0  0  0  0  0  0  0  0  0  0  0
   -5.7158    4.1250    0.0000 C   0  0  0  0  0  0  0  0  0  0  0  0
   -5.0013    4.5375    0.0000 O   0  0  0  0  0  0  0  0  0  0  0  0
   -5.7158    3.3000    0.0000 N   0  0  0  0  0  0  0  0  0  0  0  0
   -6.4302    2.8875    0.0000 C   0  0  0  0  0  0  0  0  0  0  0  0
   -5.0013    2.8875    0.0000 C   0  0  0  0  0  0  0  0  0  0  0  0
   -5.0013    5.3625    0.0000 O   0  0  0  0  0  0  0  0  0  0  0  0
   -4.2868    4.1250    0.0000 O   0  0  0  0  0  0  0  0  0  0  0  0
   -2.8579    4.1250    0.0000 C   0  0  0  0  0  0  0  0  0  0  0  0
   -4.2868    5.7750    0.0000 O   0  0  0  0  0  0  0  0  0  0  0  0
   -0.7145    2.8875    0.0000 O   0  0  0  0  0  0  0  0  0  0  0  0
   -1.4289    6.6000    0.0000 N   0  0  0  0  0  0  0  0  0  0  0  0
   -4.2868    6.6000    0.0000 C   0  0  0  0  0  0  0  0  0  0  0  0
   -2.8579    7.4250    0.0000 C   0  0  0  0  0  0  0  0  0  0  0  0
   -0.5763    7.0923    0.0000 H   0  0  0  0  0  0  0  0  0  0  0  0
  2  1  1  0  0  0  0
  2 26  1  0  0  0  0
  3  1  1  0  0  0  0
  3 23  1  6  0  0  0
  4  3  1  0  0  0  0
  5  4  1  0  0  0  0
  6 27  1  0  0  0  0
  7  6  1  0  0  0  0
  8  6  1  0  0  0  0
  8 11  1  1  0  0  0
  9  7  1  0  0  0  0
 10  8  1  0  0  0  0
 10  9  1  0  0  0  0
 12  8  1  0  0  0  0
 13 12  1  0  0  0  0
 14 13  1  0  0  0  0
 15 13  1  0  0  0  0
 16 14  1  0  0  0  0
 17 16  2  0  0  0  0
 18 16  1  0  0  0  0
 19 18  1  0  0  0  0
 20  5  1  0  0  0  0
 20 18  1  0  0  0  0
 21 12  2  0  0  0  0
 22  5  2  0  0  0  0
 24 27  2  0  0  0  0
 25  2  2  0  0  0  0
 26 29  1  0  0  0  0
 27 28  1  0  0  0  0
 28 26  1  0  0  0  0
M  END
$$$$
S=[Se]=S
 OpenBabel07182308452D

  3  2  0  0  0  0  0  0  0  0999 V2000
    1.6500    0.0000    0.0000 S   0  0  0  0  0  0  0  0  0  0  0  0
    2.4750    0.0000    0.0000 Se  0  0  0  0  0  0  0  0  0  0  0  0
    3.3000    0.0000    0.0000 S   0  0  0  0  0  0  0  0  0  0  0  0
  1  2  2  0  0  0  0
  2  3  2  0  0  0  0
M  END
$$$$
CN1CCCCCC1
 OpenBabel07182308452D

  8  8  0  0  1  0  0  0  0  0999 V2000
    2.1147    2.3521    0.0000 N   0  0  0  0  0  0  0  0  0  0  0  0
    3.4737    1.0912    0.0000 C   0  0  0  0  0  0  0  0  0  0  0  0
    2.7920    0.6265    0.0000 C   0  0  0  0  0  0  0  0  0  0  0  0
    3.5353    1.9139    0.0000 C   0  0  0  0  0  0  0  0  0  0  0  0
    2.0037    0.8696    0.0000 C   0  0  0  0  0  0  0  0  0  0  0  0
    2.9306    2.4751    0.0000 C   0  0  0  0  0  0  0  0  0  0  0  0
    1.7022    1.6376    0.0000 C   0  0  0  0  0  0  0  0  0  0  0  0
    1.6500    3.0338    0.0000 C   0  0  0  0  0  0  0  0  0  0  0  0
  1  6  1  0  0  0  0
  1  7  1  0  0  0  0
  1  8  1  0  0  0  0
  2  3  1  0  0  0  0
  2  4  1  0  0  0  0
  3  5  1  0  0  0  0
  4  6  1  0  0  0  0
  5  7  1  0  0  0  0
M  END
$$$$
O=c1[nH]nc(c2c1cccc2)C
 OpenBabel07182308452D

 12 13  0  0  1  0  0  0  0  0999 V2000
    4.9026    1.9162    0.0000 O   0  0  0  0  0  0  0  0  0  0  0  0
    4.1881    0.6787    0.0000 N   0  0  0  0  0  0  0  0  0  0  0  0
    4.1881   -0.1463    0.0000 N   0  0  0  0  0  0  0  0  0  0  0  0
    4.9026    1.0912    0.0000 C   0  0  0  0  0  0  0  0  0  0  0  0
    5.6170    0.6787    0.0000 C   0  0  0  0  0  0  0  0  0  0  0  0
    4.9026   -0.5588    0.0000 C   0  0  0  0  0  0  0  0  0  0  0  0
    5.6170   -0.1463    0.0000 C   0  0  0  0  0  0  0  0  0  0  0  0
    4.9026   -1.3838    0.0000 C   0  0  0  0  0  0  0  0  0  0  0  0
    6.3546    1.1199    0.0000 C   0  0  0  0  0  0  0  0  0  0  0  0
    6.3546   -0.5873    0.0000 C   0  0  0  0  0  0  0  0  0  0  0  0
    7.1021    0.6959    0.0000 C   0  0  0  0  0  0  0  0  0  0  0  0
    7.1021   -0.1634    0.0000 C   0  0  0  0  0  0  0  0  0  0  0  0
  1  4  2  0  0  0  0
  2  3  1  0  0  0  0
  2  4  1  0  0  0  0
  3  6  2  0  0  0  0
  4  5  1  0  0  0  0
  5  7  1  0  0  0  0
  5  9  2  0  0  0  0
  6  7  1  0  0  0  0
  6  8  1  0  0  0  0
  7 10  2  0  0  0  0
  9 11  1  0  0  0  0
 10 12  1  0  0  0  0
 11 12  2  0  0  0  0
M  END
$$$$
C[C@@H]1CNC1=O
 OpenBabel07182308452D

  8  8  0  0  0  0  0  0  0  0999 V2000
    0.6386   -0.0661    0.0000 C   0  0  0  0  0  0  0  0  0  0  0  0
    0.0552   -0.6496    0.0000 O   0  0  0  0  0  0  0  0  0  0  0  0
    1.4637   -0.0661    0.0000 N   0  0  0  0  0  0  0  0  0  0  0  0
    0.6387    0.7588    0.0000 C   0  0  1  0  0  0  0  0  0  0  0  0
    1.4637    1.5839    0.0000 H   0  0  0  0  0  0  0  0  0  0  0  0
    1.4637    0.7588    0.0000 C   0  0  0  0  0  0  0  0  0  0  0  0
   -0.0741    1.1632    0.0000 C   0  0  0  0  0  0  0  0  0  0  0  0
    0.6415    1.5808    0.0000 H   0  0  0  0  0  0  0  0  0  0  0  0
  1  3  1  0  0  0  0
  1  2  2  0  0  0  0
  3  6  1  0  0  0  0
  4  1  1  0  0  0  0
  4  7  1  0  0  0  0
  4  8  1  1  0  0  0
  6  4  1  0  0  0  0
  6  5  1  0  0  0  0
M  END
$$$$
Nc1ncc2c(n1)cnc(n2)N
 OpenBabel07182308452D

 12 13  0  0  0  0  0  0  0  0999 V2000
    7.8650   -0.4155    0.0000 N   0  0  0  0  0  0  0  0  0  0  0  0
    4.9509    0.4267    0.0000 N   0  0  0  0  0  0  0  0  0  0  0  0
    7.1174    0.8678    0.0000 N   0  0  0  0  0  0  0  0  0  0  0  0
    5.6655   -0.8108    0.0000 N   0  0  0  0  0  0  0  0  0  0  0  0
    8.5779    0.8592    0.0000 N   0  0  0  0  0  0  0  0  0  0  0  0
    4.2365   -0.8108    0.0000 N   0  0  0  0  0  0  0  0  0  0  0  0
    7.1174   -0.8394    0.0000 C   0  0  0  0  0  0  0  0  0  0  0  0
    5.6655    0.8392    0.0000 C   0  0  0  0  0  0  0  0  0  0  0  0
    6.3799    0.4267    0.0000 C   0  0  0  0  0  0  0  0  0  0  0  0
    6.3799   -0.3983    0.0000 C   0  0  0  0  0  0  0  0  0  0  0  0
    7.8650    0.4439    0.0000 C   0  0  0  0  0  0  0  0  0  0  0  0
    4.9509   -0.3983    0.0000 C   0  0  0  0  0  0  0  0  0  0  0  0
  1  7  2  0  0  0  0
  1 11  1  0  0  0  0
  2  8  2  0  0  0  0
  2 12  1  0  0  0  0
  3  9  1  0  0  0  0
  3 11  2  0  0  0  0
  4 10  1  0  0  0  0
  4 12  2  0  0  0  0
  5 11  1  0  0  0  0
  6 12  1  0  0  0  0
  7 10  1  0  0  0  0
  8  9  1  0  0  0  0
  9 10  2  0  0  0  0
M  END
$$$$
CC1C[C@@H](C)C(=O)[C@H](C)[C@H]2N(C)C(=O)O[C@]2(C)COC(=O)[C@@H](C(=O)[C@@H](C1)C)C
 OpenBabel07182308452D

 29 30  0  0  0  0  0  0  0  0999 V2000
   -0.1733    0.3672    0.0000 C   0  0  2  0  0  0  0  0  0  0  0  0
    0.2372    1.0790    0.0000 C   0  0  2  0  0  0  0  0  0  0  0  0
   -1.0722    1.3528    0.0000 C   0  0  0  0  0  0  0  0  0  0  0  0
   -0.9764    0.5406    0.0000 O   0  0  0  0  0  0  0  0  0  0  0  0
   -0.3194    1.6903    0.0000 N   0  0  0  0  0  0  0  0  0  0  0  0
    0.8439    1.2934    0.0000 C   0  0  2  0  0  0  0  0  0  0  0  0
    0.5292   -1.6995    0.0000 C   0  0  0  0  0  0  0  0  0  0  0  0
    1.9528   -1.6904    0.0000 C   0  0  0  0  0  0  0  0  0  0  0  0
    1.2409   -2.1147    0.0000 C   0  0  1  0  0  0  0  0  0  0  0  0
    2.6645   -0.4540    0.0000 C   0  0  0  0  0  0  0  0  0  0  0  0
    1.9528   -0.8691    0.0000 C   0  0  1  0  0  0  0  0  0  0  0  0
    1.2638    2.0052    0.0000 C   0  0  0  0  0  0  0  0  0  0  0  0
    0.5292   -0.8691    0.0000 O   0  0  0  0  0  0  0  0  0  0  0  0
    2.6599    0.3763    0.0000 C   0  0  3  0  0  0  0  0  0  0  0  0
   -0.1825   -0.4586    0.0000 C   0  0  0  0  0  0  0  0  0  0  0  0
    1.9390    1.6083    0.0000 C   0  0  1  0  0  0  0  0  0  0  0  0
    1.9390    0.7869    0.0000 C   0  0  0  0  0  0  0  0  0  0  0  0
   -1.7884    1.7589    0.0000 O   0  0  0  0  0  0  0  0  0  0  0  0
   -0.1871   -2.1102    0.0000 O   0  0  0  0  0  0  0  0  0  0  0  0
    2.6737   -2.1011    0.0000 O   0  0  0  0  0  0  0  0  0  0  0  0
    1.2683    2.8311    0.0000 O   0  0  0  0  0  0  0  0  0  0  0  0
   -0.7618   -0.2122    0.0000 C   0  0  0  0  0  0  0  0  0  0  0  0
   -0.3238    2.5163    0.0000 C   0  0  0  0  0  0  0  0  0  0  0  0
    1.2546    0.5817    0.0000 C   0  0  0  0  0  0  0  0  0  0  0  0
    1.2409   -2.9360    0.0000 C   0  0  0  0  0  0  0  0  0  0  0  0
    1.2364   -0.4586    0.0000 C   0  0  0  0  0  0  0  0  0  0  0  0
    3.4857    0.3763    0.0000 C   0  0  0  0  0  0  0  0  0  0  0  0
    2.6508    2.0234    0.0000 C   0  0  0  0  0  0  0  0  0  0  0  0
    0.4470    1.8821    0.0000 H   0  0  0  0  0  0  0  0  0  0  0  0
  1  2  1  6  0  0  0
  1 22  1  0  0  0  0
  2 29  1  1  0  0  0
  3  4  1  0  0  0  0
  4  1  1  0  0  0  0
  5  2  1  0  0  0  0
  5  3  1  0  0  0  0
  6  2  1  6  0  0  0
  6 24  1  0  0  0  0
  7 13  1  0  0  0  0
  8  9  1  0  0  0  0
  9  7  1  0  0  0  0
  9 25  1  1  0  0  0
 10 11  1  0  0  0  0
 10 14  1  0  0  0  0
 11  8  1  0  0  0  0
 11 26  1  6  0  0  0
 12  6  1  0  0  0  0
 13 15  1  0  0  0  0
 14 17  1  0  0  0  0
 15  1  1  0  0  0  0
 16 12  1  0  0  0  0
 16 28  1  6  0  0  0
 17 16  1  0  0  0  0
 18  3  2  0  0  0  0
 19  7  2  0  0  0  0
 20  8  2  0  0  0  0
 21 12  2  0  0  0  0
 23  5  1  0  0  0  0
 27 14  1  0  0  0  0
M  END
$$$$
C[C@@H]1CC[C@H]([C@@H](O1)O)O
 OpenBabel07182308452D

 10 10  0  0  0  0  0  0  0  0999 V2000
    4.0880   -0.4448    0.0000 C   0  0  2  0  0  0  0  0  0  0  0  0
    4.7998   -0.8509    0.0000 C   0  0  1  0  0  0  0  0  0  0  0  0
    3.3854   -0.8555    0.0000 O   0  0  0  0  0  0  0  0  0  0  0  0
    5.5115   -0.4312    0.0000 C   0  0  0  0  0  0  0  0  0  0  0  0
    4.0743    0.3763    0.0000 O   0  0  0  0  0  0  0  0  0  0  0  0
    5.5069    0.3900    0.0000 C   0  0  0  0  0  0  0  0  0  0  0  0
    4.7860    0.7915    0.0000 C   0  0  1  0  0  0  0  0  0  0  0  0
    4.8089   -1.6767    0.0000 O   0  0  0  0  0  0  0  0  0  0  0  0
    4.7860    1.6219    0.0000 C   0  0  0  0  0  0  0  0  0  0  0  0
    3.9743   -2.1709    0.0000 H   0  0  0  0  0  0  0  0  0  0  0  0
  1  3  1  6  0  0  0
  2  1  1  0  0  0  0
  2  8  1  1  0  0  0
  4  2  1  0  0  0  0
  4  6  1  0  0  0  0
  5  1  1  0  0  0  0
  6  7  1  0  0  0  0
  7  5  1  0  0  0  0
  7  9  1  6  0  0  0
  8 10  1  0  0  0  0
M  END
$$$$
C#C[C@]1(O)CC[C@@H]2[C@]1(C)CC[C@H]1[C@H]2CCc2c1ccc(c2)O
 OpenBabel07182308452D

 27 30  0  0  0  0  0  0  0  0999 V2000
    7.7254    1.5548    0.0000 O   0  0  0  0  0  0  0  0  0  0  0  0
    2.3626   -1.9994    0.0000 O   0  0  0  0  0  0  0  0  0  0  0  0
    6.8116    0.5185    0.0000 C   0  0  1  0  0  0  0  0  0  0  0  0
    6.8116   -0.3064    0.0000 C   0  0  2  0  0  0  0  0  0  0  0  0
    6.0971   -0.7188    0.0000 C   0  0  2  0  0  0  0  0  0  0  0  0
    7.5921    0.7699    0.0000 C   0  0  2  0  0  0  0  0  0  0  0  0
    6.0971    0.9310    0.0000 C   0  0  0  0  0  0  0  0  0  0  0  0
    7.5921   -0.5577    0.0000 C   0  0  0  0  0  0  0  0  0  0  0  0
    5.3827    0.5185    0.0000 C   0  0  0  0  0  0  0  0  0  0  0  0
    8.0734    0.1061    0.0000 C   0  0  0  0  0  0  0  0  0  0  0  0
    6.1102   -1.5781    0.0000 C   0  0  0  0  0  0  0  0  0  0  0  0
    6.8116    1.3434    0.0000 C   0  0  0  0  0  0  0  0  0  0  0  0
    4.6321   -0.7245    0.0000 C   0  0  0  0  0  0  0  0  0  0  0  0
    5.3696   -2.0134    0.0000 C   0  0  0  0  0  0  0  0  0  0  0  0
    4.6255   -1.5838    0.0000 C   0  0  0  0  0  0  0  0  0  0  0  0
    8.2602    0.9263    0.0000 C   0  0  0  0  0  0  0  0  0  0  0  0
    3.8674   -0.2592    0.0000 C   0  0  0  0  0  0  0  0  0  0  0  0
    3.8538   -2.0372    0.0000 C   0  0  0  0  0  0  0  0  0  0  0  0
    3.0855   -0.6947    0.0000 C   0  0  0  0  0  0  0  0  0  0  0  0
    3.0785   -1.5898    0.0000 C   0  0  0  0  0  0  0  0  0  0  0  0
    9.0774    1.0528    0.0000 C   0  0  0  0  0  0  0  0  0  0  0  0
    6.0759    0.0864    0.0000 H   0  0  0  0  0  0  0  0  0  0  0  0
    5.3827   -0.3064    0.0000 C   0  0  2  0  0  0  0  0  0  0  0  0
    5.3762   -1.1312    0.0000 H   0  0  0  0  0  0  0  0  0  0  0  0
    6.8988   -1.1266    0.0000 H   0  0  0  0  0  0  0  0  0  0  0  0
    8.6348    1.8923    0.0000 H   0  0  0  0  0  0  0  0  0  0  0  0
    1.5530   -1.5277    0.0000 H   0  0  0  0  0  0  0  0  0  0  0  0
  1 26  1  0  0  0  0
  2 20  1  0  0  0  0
  2 27  1  0  0  0  0
  3  4  1  1  0  0  0
  3  7  1  0  0  0  0
  3 12  1  0  0  0  0
  4  5  1  1  0  0  0
  4  8  1  0  0  0  0
  4 25  1  0  0  0  0
  5 11  1  0  0  0  0
  5 22  1  0  0  0  0
  5 23  1  6  0  0  0
  6  1  1  0  0  0  0
  6  3  1  6  0  0  0
  6 10  1  0  0  0  0
  6 16  1  0  0  0  0
  7  9  1  0  0  0  0
  8 10  1  0  0  0  0
 11 14  1  0  0  0  0
 13 15  2  0  0  0  0
 13 17  1  0  0  0  0
 14 15  1  0  0  0  0
 15 18  1  0  0  0  0
 16 21  3  0  0  0  0
 17 19  2  0  0  0  0
 18 20  2  0  0  0  0
 19 20  1  0  0  0  0
 23  9  1  0  0  0  0
 23 13  1  0  0  0  0
 23 24  1  6  0  0  0
M  END
$$$$
Fc1cc(F)c2c(c1)c(=O)cc[nH]2
 OpenBabel07182308452D

 13 14  0  0  1  0  0  0  0  0999 V2000
    4.9508   -1.0455    0.0000 F   0  0  0  0  0  0  0  0  0  0  0  0
    3.5219    1.4295    0.0000 F   0  0  0  0  0  0  0  0  0  0  0  0
    6.3933    2.2830    0.0000 O   0  0  0  0  0  0  0  0  0  0  0  0
    6.4028   -0.2492    0.0000 N   0  0  0  0  0  0  0  0  0  0  0  0
    4.2364    0.1920    0.0000 C   0  0  0  0  0  0  0  0  0  0  0  0
    4.9508   -0.2205    0.0000 C   0  0  0  0  0  0  0  0  0  0  0  0
    5.6654    0.1920    0.0000 C   0  0  0  0  0  0  0  0  0  0  0  0
    4.2364    1.0170    0.0000 C   0  0  0  0  0  0  0  0  0  0  0  0
    5.6654    1.0170    0.0000 C   0  0  0  0  0  0  0  0  0  0  0  0
    4.9508    1.4295    0.0000 C   0  0  0  0  0  0  0  0  0  0  0  0
    6.4028    1.4581    0.0000 C   0  0  0  0  0  0  0  0  0  0  0  0
    7.1504    0.1748    0.0000 C   0  0  0  0  0  0  0  0  0  0  0  0
    7.1504    1.0341    0.0000 C   0  0  0  0  0  0  0  0  0  0  0  0
  1  6  1  0  0  0  0
  2  8  1  0  0  0  0
  3 11  2  0  0  0  0
  4  7  1  0  0  0  0
  4 12  1  0  0  0  0
  5  6  1  0  0  0  0
  5  8  2  0  0  0  0
  6  7  2  0  0  0  0
  7  9  1  0  0  0  0
  8 10  1  0  0  0  0
  9 10  2  0  0  0  0
  9 11  1  0  0  0  0
 11 13  1  0  0  0  0
 12 13  2  0  0  0  0
M  END
$$$$
CC1(O)CCCC1
 OpenBabel07182308452D

  8  8  0  0  1  0  0  0  0  0999 V2000
    6.0383    1.4696    0.0000 O   0  0  0  0  0  0  0  0  0  0  0  0
    6.6515    0.9176    0.0000 C   0  0  0  0  0  0  0  0  0  0  0  0
    7.2035    1.5307    0.0000 C   0  0  0  0  0  0  0  0  0  0  0  0
    7.0640    0.2031    0.0000 C   0  0  0  0  0  0  0  0  0  0  0  0
    7.9572    1.1951    0.0000 C   0  0  0  0  0  0  0  0  0  0  0  0
    7.8709    0.3746    0.0000 C   0  0  0  0  0  0  0  0  0  0  0  0
    5.9370    0.5051    0.0000 C   0  0  0  0  0  0  0  0  0  0  0  0
    6.2399    2.4184    0.0000 H   0  0  0  0  0  0  0  0  0  0  0  0
  1  2  1  0  0  0  0
  1  8  1  0  0  0  0
  2  3  1  0  0  0  0
  2  4  1  0  0  0  0
  2  7  1  0  0  0  0
  3  5  1  0  0  0  0
  4  6  1  0  0  0  0
  5  6  1  0  0  0  0
M  END
$$$$
C[C@@H]1CCc2c1c1CCOc1cc2
 OpenBabel07182308452D

 13 15  0  0  1  0  0  0  0  0999 V2000
    2.1316    3.1623    0.0000 O   0  0  0  0  0  0  0  0  0  0  0  0
    3.7993    0.8714    0.0000 C   0  0  1  0  0  0  0  0  0  0  0  0
    3.6267    1.6732    0.0000 C   0  0  0  0  0  0  0  0  0  0  0  0
    4.6149    0.7865    0.0000 C   0  0  0  0  0  0  0  0  0  0  0  0
    4.9492    1.5354    0.0000 C   0  0  0  0  0  0  0  0  0  0  0  0
    4.3412    2.0857    0.0000 C   0  0  0  0  0  0  0  0  0  0  0  0
    3.2482    0.2574    0.0000 C   0  0  0  0  0  0  0  0  0  0  0  0
    2.9121    2.0857    0.0000 C   0  0  0  0  0  0  0  0  0  0  0  0
    2.1316    1.8343    0.0000 C   0  0  0  0  0  0  0  0  0  0  0  0
    2.9121    2.9107    0.0000 C   0  0  0  0  0  0  0  0  0  0  0  0
    4.3412    2.9107    0.0000 C   0  0  0  0  0  0  0  0  0  0  0  0
    1.6500    2.4982    0.0000 C   0  0  0  0  0  0  0  0  0  0  0  0
    3.6267    3.3233    0.0000 C   0  0  0  0  0  0  0  0  0  0  0  0
  1 10  1  0  0  0  0
  1 12  1  0  0  0  0
  2  3  1  0  0  0  0
  2  4  1  0  0  0  0
  2  7  1  1  0  0  0
  3  6  2  0  0  0  0
  3  8  1  0  0  0  0
  4  5  1  0  0  0  0
  5  6  1  0  0  0  0
  6 11  1  0  0  0  0
  8  9  1  0  0  0  0
  8 10  2  0  0  0  0
  9 12  1  0  0  0  0
 10 13  1  0  0  0  0
 11 13  2  0  0  0  0
M  END
$$$$
CN1CC[C@@]2([C@H]1N(C)c1c2cc(cc1)O)C
 OpenBabel07182308452D

 17 19  0  0  1  0  0  0  0  0999 V2000
    3.5651    0.0678    0.0000 O   0  0  0  0  0  0  0  0  0  0  0  0
    7.7863   -0.6839    0.0000 N   0  0  0  0  0  0  0  0  0  0  0  0
    6.8691    0.5845    0.0000 N   0  0  0  0  0  0  0  0  0  0  0  0
    6.4566   -0.6851    0.0000 C   0  0  1  0  0  0  0  0  0  0  0  0
    7.1240   -0.2001    0.0000 C   0  0  2  0  0  0  0  0  0  0  0  0
    6.7121   -1.4644    0.0000 C   0  0  0  0  0  0  0  0  0  0  0  0
    5.7891   -0.2001    0.0000 C   0  0  0  0  0  0  0  0  0  0  0  0
    7.5322   -1.4637    0.0000 C   0  0  0  0  0  0  0  0  0  0  0  0
    6.0441    0.5845    0.0000 C   0  0  0  0  0  0  0  0  0  0  0  0
    5.7891   -1.1700    0.0000 C   0  0  0  0  0  0  0  0  0  0  0  0
    8.5714   -0.4303    0.0000 C   0  0  0  0  0  0  0  0  0  0  0  0
    4.9514   -0.3917    0.0000 C   0  0  0  0  0  0  0  0  0  0  0  0
    7.3540    1.2520    0.0000 C   0  0  0  0  0  0  0  0  0  0  0  0
    5.4789    1.2319    0.0000 C   0  0  0  0  0  0  0  0  0  0  0  0
    4.3715    0.2425    0.0000 C   0  0  0  0  0  0  0  0  0  0  0  0
    4.6370    1.0597    0.0000 C   0  0  0  0  0  0  0  0  0  0  0  0
    7.6586    0.1871    0.0000 H   0  0  0  0  0  0  0  0  0  0  0  0
  1 15  1  0  0  0  0
  2  5  1  0  0  0  0
  2  8  1  0  0  0  0
  2 11  1  0  0  0  0
  3  5  1  0  0  0  0
  3  9  1  0  0  0  0
  3 13  1  0  0  0  0
  4  5  1  6  0  0  0
  4  6  1  0  0  0  0
  4  7  1  0  0  0  0
  4 10  1  0  0  0  0
  5 17  1  6  0  0  0
  6  8  1  0  0  0  0
  7  9  2  0  0  0  0
  7 12  1  0  0  0  0
  9 14  1  0  0  0  0
 12 15  2  0  0  0  0
 14 16  2  0  0  0  0
 15 16  1  0  0  0  0
M  END
$$$$
O=C1CC[C@H]2C(=C1)CC[C@@H]1[C@@H]2CC[C@]2([C@H]1CC[C@@H]2O)C
 OpenBabel07182308452D

 24 27  0  0  1  0  0  0  0  0999 V2000
    7.1363    0.0573    0.0000 O   0  0  0  0  0  0  0  0  0  0  0  0
    1.6500   -3.4965    0.0000 O   0  0  0  0  0  0  0  0  0  0  0  0
    6.0994   -1.8033    0.0000 C   0  0  2  0  0  0  0  0  0  0  0  0
    6.0994   -0.9783    0.0000 C   0  0  2  0  0  0  0  0  0  0  0  0
    5.3849   -2.2158    0.0000 C   0  0  1  0  0  0  0  0  0  0  0  0
    4.6704   -1.8033    0.0000 C   0  0  2  0  0  0  0  0  0  0  0  0
    5.3849   -0.5658    0.0000 C   0  0  0  0  0  0  0  0  0  0  0  0
    6.8800   -0.7269    0.0000 C   0  0  2  0  0  0  0  0  0  0  0  0
    6.8800   -2.0547    0.0000 C   0  0  0  0  0  0  0  0  0  0  0  0
    4.6704   -0.9783    0.0000 C   0  0  0  0  0  0  0  0  0  0  0  0
    3.9196   -2.2214    0.0000 C   0  0  2  0  0  0  0  0  0  0  0  0
    7.3615   -1.3908    0.0000 C   0  0  0  0  0  0  0  0  0  0  0  0
    5.3981   -3.0751    0.0000 C   0  0  0  0  0  0  0  0  0  0  0  0
    6.0994   -0.1533    0.0000 C   0  0  0  0  0  0  0  0  0  0  0  0
    4.6573   -3.5105    0.0000 C   0  0  0  0  0  0  0  0  0  0  0  0
    3.9130   -3.0807    0.0000 C   0  0  0  0  0  0  0  0  0  0  0  0
    3.1550   -1.7561    0.0000 C   0  0  0  0  0  0  0  0  0  0  0  0
    2.3730   -2.1916    0.0000 C   0  0  0  0  0  0  0  0  0  0  0  0
    3.1413   -3.5343    0.0000 C   0  0  0  0  0  0  0  0  0  0  0  0
    2.3660   -3.0868    0.0000 C   0  0  0  0  0  0  0  0  0  0  0  0
    6.1692   -2.4596    0.0000 H   0  0  0  0  0  0  0  0  0  0  0  0
    5.9590   -2.5414    0.0000 H   0  0  0  0  0  0  0  0  0  0  0  0
    5.2420   -1.4733    0.0000 H   0  0  0  0  0  0  0  0  0  0  0  0
    3.9323   -1.5616    0.0000 H   0  0  0  0  0  0  0  0  0  0  0  0
  2 20  2  0  0  0  0
  3  4  1  6  0  0  0
  3  9  1  0  0  0  0
  3 21  1  0  0  0  0
  4  7  1  0  0  0  0
  4 14  1  1  0  0  0
  5  3  1  6  0  0  0
  5 13  1  0  0  0  0
  5 22  1  0  0  0  0
  6  5  1  1  0  0  0
  6 10  1  0  0  0  0
  6 23  1  0  0  0  0
  7 10  1  0  0  0  0
  8  1  1  0  0  0  0
  8  4  1  1  0  0  0
  8 12  1  0  0  0  0
  9 12  1  0  0  0  0
 11  6  1  6  0  0  0
 11 16  1  0  0  0  0
 11 17  1  0  0  0  0
 11 24  1  0  0  0  0
 13 15  1  0  0  0  0
 15 16  1  0  0  0  0
 16 19  2  0  0  0  0
 17 18  1  0  0  0  0
 18 20  1  0  0  0  0
 19 20  1  0  0  0  0
M  END
$$$$
Clc1nc2c([nH]1)n(C)c(=O)n(c2=O)C
 OpenBabel07182308452D

 15 16  0  0  0  0  0  0  0  0999 V2000
    2.9371    0.4866    0.0000 C   0  0  0  0  0  0  0  0  0  0  0  0
    2.9371   -0.4521    0.0000 C   0  0  0  0  0  0  0  0  0  0  0  0
    2.2054    0.9042    0.0000 C   0  0  0  0  0  0  0  0  0  0  0  0
    3.6757    0.7489    0.0000 N   0  0  0  0  0  0  0  0  0  0  0  0
    2.1917   -0.8974    0.0000 N   0  0  0  0  0  0  0  0  0  0  0  0
    3.6895   -0.7109    0.0000 N   0  0  0  0  0  0  0  0  0  0  0  0
    1.4150    0.4487    0.0000 N   0  0  0  0  0  0  0  0  0  0  0  0
    2.2054    1.7498    0.0000 O   0  0  0  0  0  0  0  0  0  0  0  0
    4.2073    0.0483    0.0000 C   0  0  0  0  0  0  0  0  0  0  0  0
    1.4150   -0.4521    0.0000 C   0  0  0  0  0  0  0  0  0  0  0  0
    2.2054   -1.7360    0.0000 C   0  0  0  0  0  0  0  0  0  0  0  0
    0.6868    0.8524    0.0000 C   0  0  0  0  0  0  0  0  0  0  0  0
    5.0528    0.0517    0.0000 Cl  0  0  0  0  0  0  0  0  0  0  0  0
    0.6903   -0.8904    0.0000 O   0  0  0  0  0  0  0  0  0  0  0  0
    3.9996   -1.6453    0.0000 H   0  0  0  0  0  0  0  0  0  0  0  0
  1  2  2  0  0  0  0
  1  3  1  0  0  0  0
  1  4  1  0  0  0  0
  2  5  1  0  0  0  0
  2  6  1  0  0  0  0
  3  7  1  0  0  0  0
  3  8  2  0  0  0  0
  4  9  2  0  0  0  0
  5 10  1  0  0  0  0
  5 11  1  0  0  0  0
  6  9  1  0  0  0  0
  6 15  1  0  0  0  0
  7 12  1  0  0  0  0
  7 10  1  0  0  0  0
  9 13  1  0  0  0  0
 10 14  2  0  0  0  0
M  END
$$$$
C[N+]1(C)CCCC1
 OpenBabel07182308452D

  7  7  0  0  0  0  0  0  0  0999 V2000
    2.4391   -0.6085    0.0000 N   0  3  0  0  0  0  0  0  0  0  0  0
    1.1108   -0.6230    0.0000 C   0  0  0  0  0  0  0  0  0  0  0  0
    1.7774   -0.1303    0.0000 C   0  0  0  0  0  0  0  0  0  0  0  0
    2.1541   -1.3909    0.0000 C   0  0  0  0  0  0  0  0  0  0  0  0
    1.3572   -1.3909    0.0000 C   0  0  0  0  0  0  0  0  0  0  0  0
    3.1490   -0.1979    0.0000 C   0  0  0  0  0  0  0  0  0  0  0  0
    3.1490   -1.0239    0.0000 C   0  0  0  0  0  0  0  0  0  0  0  0
  1  3  1  0  0  0  0
  1  4  1  0  0  0  0
  3  2  1  0  0  0  0
  4  5  1  0  0  0  0
  5  2  1  0  0  0  0
  6  1  1  0  0  0  0
  7  1  1  0  0  0  0
M  CHG  1   1   1
M  END
$$$$
O=C1C=C[C@]2(C(=C1)C(=C)C[C@@H]1[C@@H]2CC[C@]2([C@H]1CCC2=O)C)C
 OpenBabel07182308452D

 25 28  0  0  1  0  0  0  0  0999 V2000
    7.1359    2.1963    0.0000 O   0  0  0  0  0  0  0  0  0  0  0  0
    1.6499   -1.3573    0.0000 O   0  0  0  0  0  0  0  0  0  0  0  0
    6.0989    0.3358    0.0000 C   0  0  1  0  0  0  0  0  0  0  0  0
    5.3846   -0.0767    0.0000 C   0  0  1  0  0  0  0  0  0  0  0  0
    6.0989    1.1607    0.0000 C   0  0  2  0  0  0  0  0  0  0  0  0
    4.6700    0.3358    0.0000 C   0  0  2  0  0  0  0  0  0  0  0  0
    5.3846    1.5732    0.0000 C   0  0  0  0  0  0  0  0  0  0  0  0
    4.6700    1.1607    0.0000 C   0  0  0  0  0  0  0  0  0  0  0  0
    3.9194   -0.0823    0.0000 C   0  0  1  0  0  0  0  0  0  0  0  0
    6.8795    0.0844    0.0000 C   0  0  0  0  0  0  0  0  0  0  0  0
    5.3978   -0.9359    0.0000 C   0  0  0  0  0  0  0  0  0  0  0  0
    6.8795    1.4121    0.0000 C   0  0  0  0  0  0  0  0  0  0  0  0
    7.3609    0.7483    0.0000 C   0  0  0  0  0  0  0  0  0  0  0  0
    6.0989    1.9857    0.0000 C   0  0  0  0  0  0  0  0  0  0  0  0
    3.9128   -0.9416    0.0000 C   0  0  0  0  0  0  0  0  0  0  0  0
    4.6569   -1.3713    0.0000 C   0  0  0  0  0  0  0  0  0  0  0  0
    3.9257    0.7426    0.0000 C   0  0  0  0  0  0  0  0  0  0  0  0
    3.1548    0.3830    0.0000 C   0  0  0  0  0  0  0  0  0  0  0  0
    3.1411   -1.3951    0.0000 C   0  0  0  0  0  0  0  0  0  0  0  0
    2.3728   -0.0526    0.0000 C   0  0  0  0  0  0  0  0  0  0  0  0
    4.6600   -2.1963    0.0000 C   0  0  0  0  0  0  0  0  0  0  0  0
    2.3659   -0.9476    0.0000 C   0  0  0  0  0  0  0  0  0  0  0  0
    6.1687   -0.3205    0.0000 H   0  0  0  0  0  0  0  0  0  0  0  0
    5.9585   -0.4023    0.0000 H   0  0  0  0  0  0  0  0  0  0  0  0
    5.2417    0.6658    0.0000 H   0  0  0  0  0  0  0  0  0  0  0  0
  1 12  2  0  0  0  0
  2 22  2  0  0  0  0
  3  4  1  1  0  0  0
  3 10  1  0  0  0  0
  3 23  1  0  0  0  0
  4  6  1  1  0  0  0
  4 11  1  0  0  0  0
  4 24  1  0  0  0  0
  5  3  1  1  0  0  0
  5  7  1  0  0  0  0
  5 12  1  0  0  0  0
  5 14  1  0  0  0  0
  6  8  1  0  0  0  0
  6  9  1  6  0  0  0
  6 25  1  0  0  0  0
  7  8  1  0  0  0  0
  9 15  1  0  0  0  0
  9 17  1  1  0  0  0
  9 18  1  0  0  0  0
 10 13  1  0  0  0  0
 11 16  1  0  0  0  0
 12 13  1  0  0  0  0
 15 16  1  0  0  0  0
 15 19  2  0  0  0  0
 16 21  2  0  0  0  0
 18 20  2  0  0  0  0
 19 22  1  0  0  0  0
 20 22  1  0  0  0  0
M  END
$$$$
Cc1ncco1
 OpenBabel07182308452D

  6  6  0  0  0  0  0  0  0  0999 V2000
    3.9298    0.2443    0.0000 O   0  0  0  0  0  0  0  0  0  0  0  0
    2.8498   -0.5404    0.0000 N   0  0  0  0  0  0  0  0  0  0  0  0
    4.1848   -0.5404    0.0000 C   0  0  0  0  0  0  0  0  0  0  0  0
    3.5173   -1.0253    0.0000 C   0  0  0  0  0  0  0  0  0  0  0  0
    3.1048    0.2443    0.0000 C   0  0  0  0  0  0  0  0  0  0  0  0
    2.6199    0.9117    0.0000 C   0  0  0  0  0  0  0  0  0  0  0  0
  1  3  1  0  0  0  0
  1  5  1  0  0  0  0
  2  4  1  0  0  0  0
  2  5  2  0  0  0  0
  3  4  2  0  0  0  0
  5  6  1  0  0  0  0
M  END
$$$$
Cn1cncc1S
 OpenBabel07182308452D

  7  7  0  0  0  0  0  0  0  0999 V2000
    3.6703   -0.0585    0.0000 S   0  0  0  0  0  0  0  0  0  0  0  0
    2.2021    0.0185    0.0000 N   0  0  0  0  0  0  0  0  0  0  0  0
    2.0625    1.3460    0.0000 N   0  0  0  0  0  0  0  0  0  0  0  0
    2.9558    0.3540    0.0000 C   0  0  0  0  0  0  0  0  0  0  0  0
    2.8695    1.1745    0.0000 C   0  0  0  0  0  0  0  0  0  0  0  0
    1.6500    0.6316    0.0000 C   0  0  0  0  0  0  0  0  0  0  0  0
    2.0305   -0.7886    0.0000 C   0  0  0  0  0  0  0  0  0  0  0  0
  1  4  1  0  0  0  0
  2  4  1  0  0  0  0
  2  6  1  0  0  0  0
  2  7  1  0  0  0  0
  3  5  1  0  0  0  0
  3  6  2  0  0  0  0
  4  5  2  0  0  0  0
M  END
$$$$
c1ncc2c(n1)nc[nH]2
 OpenBabel07182308452D

 10 11  0  0  0  0  0  0  0  0999 V2000
    5.1654   -1.0446    0.0000 N   0  0  0  0  0  0  0  0  0  0  0  0
    2.9558   -1.2960    0.0000 N   0  0  0  0  0  0  0  0  0  0  0  0
    5.1654   -2.3724    0.0000 N   0  0  0  0  0  0  0  0  0  0  0  0
    3.6703   -2.5335    0.0000 N   0  0  0  0  0  0  0  0  0  0  0  0
    4.3847   -1.2960    0.0000 C   0  0  0  0  0  0  0  0  0  0  0  0
    3.6703   -0.8835    0.0000 C   0  0  0  0  0  0  0  0  0  0  0  0
    4.3847   -2.1210    0.0000 C   0  0  0  0  0  0  0  0  0  0  0  0
    5.6469   -1.7085    0.0000 C   0  0  0  0  0  0  0  0  0  0  0  0
    2.9558   -2.1210    0.0000 C   0  0  0  0  0  0  0  0  0  0  0  0
    5.4712   -0.1088    0.0000 H   0  0  0  0  0  0  0  0  0  0  0  0
  1  5  1  0  0  0  0
  1  8  1  0  0  0  0
  1 10  1  0  0  0  0
  2  6  2  0  0  0  0
  2  9  1  0  0  0  0
  3  7  1  0  0  0  0
  3  8  2  0  0  0  0
  4  7  1  0  0  0  0
  4  9  2  0  0  0  0
  5  6  1  0  0  0  0
  5  7  2  0  0  0  0
M  END
$$$$
O[C@@H]1[C@@H](C)O[C@H]([C@@H]([C@H]1O)O)S
 OpenBabel07182308452D

 11 11  0  0  1  0  0  0  0  0999 V2000
    6.6365  -13.5279    0.0000 C   0  0  2  0  0  0  0  0  0  0  0  0
    7.3499  -13.1128    0.0000 C   0  0  2  0  0  0  0  0  0  0  0  0
    5.9196  -13.1128    0.0000 C   0  0  1  0  0  0  0  0  0  0  0  0
    7.3499  -12.2863    0.0000 C   0  0  1  0  0  0  0  0  0  0  0  0
    8.0634  -13.5279    0.0000 O   0  0  0  0  0  0  0  0  0  0  0  0
    5.9196  -12.2863    0.0000 C   0  0  2  0  0  0  0  0  0  0  0  0
    5.2062  -13.5279    0.0000 O   0  0  0  0  0  0  0  0  0  0  0  0
    6.6365  -11.8780    0.0000 O   0  0  0  0  0  0  0  0  0  0  0  0
    8.0600  -11.8746    0.0000 S   0  0  0  0  0  0  0  0  0  0  0  0
    5.2028  -11.8780    0.0000 C   0  0  0  0  0  0  0  0  0  0  0  0
    6.6374  -14.3529    0.0000 O   0  0  0  0  0  0  0  0  0  0  0  0
  1  2  1  0  0  0  0
  1  3  1  0  0  0  0
  1 11  1  1  0  0  0
  2  4  1  0  0  0  0
  2  5  1  6  0  0  0
  3  6  1  0  0  0  0
  3  7  1  6  0  0  0
  4  8  1  0  0  0  0
  4  9  1  1  0  0  0
  6 10  1  1  0  0  0
  6  8  1  0  0  0  0
M  END
$$$$
CC[PH3+]
 OpenBabel07182308452D

  3  2  0  0  1  0  0  0  0  0999 V2000
    7.3689  -10.6008    0.0000 P   0  3  0  0  0  0  0  0  0  0  0  0
    7.3602   -9.7759    0.0000 C   0  0  0  0  0  0  0  0  0  0  0  0
    8.0702   -9.3559    0.0000 C   0  0  0  0  0  0  0  0  0  0  0  0
  1  2  1  0  0  0  0
  2  3  1  0  0  0  0
M  CHG  1   1   1
M  END
$$$$
[Au-]
 OpenBabel07182308452D

  1  0  0  0  1  0  0  0  0  0999 V2000
    8.0353  -10.9932    0.0000 Au  0  5  0  0  0 15  0  0  0  0  0  0
M  CHG  1   1  -1
M  END
$$$$
C1CCc2c(C1)[nH]c1c2cccc1
 OpenBabel07182308452D

 14 16  0  0  1  0  0  0  0  0999 V2000
    4.6342    1.2635    0.0000 N   0  0  0  0  0  0  0  0  0  0  0  0
    2.8873   -0.4116    0.0000 C   0  0  0  0  0  0  0  0  0  0  0  0
    3.6956   -0.5770    0.0000 C   0  0  0  0  0  0  0  0  0  0  0  0
    2.6323    0.3731    0.0000 C   0  0  0  0  0  0  0  0  0  0  0  0
    4.2382    0.0447    0.0000 C   0  0  0  0  0  0  0  0  0  0  0  0
    3.1892    0.9819    0.0000 C   0  0  0  0  0  0  0  0  0  0  0  0
    3.9934    0.7979    0.0000 C   0  0  0  0  0  0  0  0  0  0  0  0
    5.0303    0.0447    0.0000 C   0  0  0  0  0  0  0  0  0  0  0  0
    5.2750    0.7979    0.0000 C   0  0  0  0  0  0  0  0  0  0  0  0
    5.5729   -0.5770    0.0000 C   0  0  0  0  0  0  0  0  0  0  0  0
    6.0793    0.9819    0.0000 C   0  0  0  0  0  0  0  0  0  0  0  0
    6.3812   -0.4116    0.0000 C   0  0  0  0  0  0  0  0  0  0  0  0
    6.6361    0.3731    0.0000 C   0  0  0  0  0  0  0  0  0  0  0  0
    4.6342    2.2480    0.0000 H   0  0  0  0  0  0  0  0  0  0  0  0
  1  7  1  0  0  0  0
  1  9  1  0  0  0  0
  1 14  1  0  0  0  0
  2  3  1  0  0  0  0
  2  4  1  0  0  0  0
  3  5  1  0  0  0  0
  4  6  1  0  0  0  0
  5  7  2  0  0  0  0
  5  8  1  0  0  0  0
  6  7  1  0  0  0  0
  8  9  2  0  0  0  0
  8 10  1  0  0  0  0
  9 11  1  0  0  0  0
 10 12  2  0  0  0  0
 11 13  2  0  0  0  0
 12 13  1  0  0  0  0
M  END
$$$$
Oc1cccc2c1c(=O)cco2
 OpenBabel07182308452D

 12 13  0  0  0  0  0  0  0  0999 V2000
   -1.4036   -3.9359    0.0000 C   0  0  0  0  0  0  0  0  0  0  0  0
   -2.1255   -5.1620    0.0000 C   0  0  0  0  0  0  0  0  0  0  0  0
   -0.6989   -4.3370    0.0000 C   0  0  0  0  0  0  0  0  0  0  0  0
   -2.1255   -4.3370    0.0000 C   0  0  0  0  0  0  0  0  0  0  0  0
   -1.4036   -5.5745    0.0000 O   0  0  0  0  0  0  0  0  0  0  0  0
   -0.6989   -5.1620    0.0000 C   0  0  0  0  0  0  0  0  0  0  0  0
    0.0172   -3.9245    0.0000 C   0  0  0  0  0  0  0  0  0  0  0  0
   -1.4036   -3.1109    0.0000 O   0  0  0  0  0  0  0  0  0  0  0  0
    0.0058   -3.0995    0.0000 O   0  0  0  0  0  0  0  0  0  0  0  0
    0.0172   -5.5745    0.0000 C   0  0  0  0  0  0  0  0  0  0  0  0
    0.7276   -5.1620    0.0000 C   0  0  0  0  0  0  0  0  0  0  0  0
    0.7276   -4.3370    0.0000 C   0  0  0  0  0  0  0  0  0  0  0  0
  2  4  2  0  0  0  0
  3  1  1  0  0  0  0
  4  1  1  0  0  0  0
  5  2  1  0  0  0  0
  6  3  2  0  0  0  0
  6  5  1  0  0  0  0
  7  3  1  0  0  0  0
  8  1  2  0  0  0  0
  9  7  1  0  0  0  0
 10  6  1  0  0  0  0
 10 11  2  0  0  0  0
 11 12  1  0  0  0  0
 12  7  2  0  0  0  0
M  END
$$$$
Nc1[nH]c(=O)c2c(n1)n(C)cn2
 OpenBabel07182308452D

 15 16  0  0  0  0  0  0  0  0999 V2000
    2.8150   -1.0862    0.0000 N   0  0  0  0  0  0  0  0  0  0  0  0
    2.0808   -0.8042    0.0000 C   0  0  0  0  0  0  0  0  0  0  0  0
    2.0681    0.0205    0.0000 C   0  0  0  0  0  0  0  0  0  0  0  0
    2.8613    0.2481    0.0000 N   0  0  0  0  0  0  0  0  0  0  0  0
    3.3228   -0.4359    0.0000 C   0  0  0  0  0  0  0  0  0  0  0  0
    1.2699   -1.1917    0.0000 N   0  0  0  0  0  0  0  0  0  0  0  0
    0.6113   -0.7547    0.0000 C   0  0  0  0  0  0  0  0  0  0  0  0
    0.6399    0.0699    0.0000 N   0  0  0  0  0  0  0  0  0  0  0  0
    1.3683    0.4575    0.0000 C   0  0  0  0  0  0  0  0  0  0  0  0
    1.3553    1.2726    0.0000 O   0  0  0  0  0  0  0  0  0  0  0  0
   -0.1230   -1.1451    0.0000 N   0  0  0  0  0  0  0  0  0  0  0  0
    2.8150   -1.9111    0.0000 C   0  0  0  0  0  0  0  0  0  0  0  0
   -0.1951    0.5914    0.0000 H   0  0  0  0  0  0  0  0  0  0  0  0
   -0.9579   -0.6234    0.0000 H   0  0  0  0  0  0  0  0  0  0  0  0
   -0.1574   -2.1290    0.0000 H   0  0  0  0  0  0  0  0  0  0  0  0
  1  2  1  0  0  0  0
  1  5  1  0  0  0  0
  1 12  1  0  0  0  0
  2  3  2  0  0  0  0
  2  6  1  0  0  0  0
  3  4  1  0  0  0  0
  3  9  1  0  0  0  0
  4  5  2  0  0  0  0
  6  7  2  0  0  0  0
  7  8  1  0  0  0  0
  7 11  1  0  0  0  0
  8  9  1  0  0  0  0
  8 13  1  0  0  0  0
  9 10  2  0  0  0  0
 11 14  1  0  0  0  0
 11 15  1  0  0  0  0
M  END
$$$$
N#Cc1ccccc1
 OpenBabel07182308452D

  8  8  0  0  0  0  0  0  0  0999 V2000
    3.6703   -3.0938    0.0000 N   0  0  0  0  0  0  0  0  0  0  0  0
    3.6703    0.2063    0.0000 C   0  0  0  0  0  0  0  0  0  0  0  0
    2.9558   -0.2063    0.0000 C   0  0  0  0  0  0  0  0  0  0  0  0
    4.3847   -0.2063    0.0000 C   0  0  0  0  0  0  0  0  0  0  0  0
    2.9558   -1.0313    0.0000 C   0  0  0  0  0  0  0  0  0  0  0  0
    4.3847   -1.0313    0.0000 C   0  0  0  0  0  0  0  0  0  0  0  0
    3.6703   -1.4438    0.0000 C   0  0  0  0  0  0  0  0  0  0  0  0
    3.6703   -2.2688    0.0000 C   0  0  0  0  0  0  0  0  0  0  0  0
  1  8  3  0  0  0  0
  2  3  2  0  0  0  0
  2  4  1  0  0  0  0
  3  5  1  0  0  0  0
  4  6  2  0  0  0  0
  5  7  2  0  0  0  0
  6  7  1  0  0  0  0
  7  8  1  0  0  0  0
M  END
$$$$
Clc1cccs1
 OpenBabel07182308452D

  6  6  0  0  1  0  0  0  0  0999 V2000
    3.4826    3.1613    0.0000 Cl  0  0  0  0  0  0  0  0  0  0  0  0
    2.0625    2.7808    0.0000 S   0  0  0  0  0  0  0  0  0  0  0  0
    2.9557    1.7888    0.0000 C   0  0  0  0  0  0  0  0  0  0  0  0
    2.2020    1.4532    0.0000 C   0  0  0  0  0  0  0  0  0  0  0  0
    2.8694    2.6092    0.0000 C   0  0  0  0  0  0  0  0  0  0  0  0
    1.6500    2.0663    0.0000 C   0  0  0  0  0  0  0  0  0  0  0  0
  1  5  1  0  0  0  0
  2  5  1  0  0  0  0
  2  6  1  0  0  0  0
  3  4  1  0  0  0  0
  3  5  2  0  0  0  0
  4  6  2  0  0  0  0
M  END
$$$$
Nc1noc(c1)C
 OpenBabel07182308452D

  8  8  0  0  0  0  0  0  0  0999 V2000
    0.7950   -0.5232    0.0000 N   0  0  0  0  0  0  0  0  0  0  0  0
    1.5104   -0.1105    0.0000 C   0  0  0  0  0  0  0  0  0  0  0  0
    1.5050    0.7144    0.0000 C   0  0  0  0  0  0  0  0  0  0  0  0
    2.2967   -0.3603    0.0000 N   0  0  0  0  0  0  0  0  0  0  0  0
    2.2879    0.9745    0.0000 C   0  0  0  0  0  0  0  0  0  0  0  0
    2.7774    0.3103    0.0000 O   0  0  0  0  0  0  0  0  0  0  0  0
    2.5378    1.7608    0.0000 C   0  0  0  0  0  0  0  0  0  0  0  0
    0.7949   -1.5077    0.0000 H   0  0  0  0  0  0  0  0  0  0  0  0
  1  2  1  0  0  0  0
  1  8  1  0  0  0  0
  3  2  1  0  0  0  0
  4  2  2  0  0  0  0
  5  3  2  0  0  0  0
  5  7  1  0  0  0  0
  6  4  1  0  0  0  0
  6  5  1  0  0  0  0
M  END
$$$$
OC1=CC(=O)[C@@]2([C@H](C1)C[C@@H]1Cc3cccc(c3C(=O)C1=C2O)O)O
 OpenBabel07182308452D

 30 33  0  0  1  0  0  0  0  0999 V2000
   11.1613   -9.5509    0.0000 C   0  0  0  0  0  0  0  0  0  0  0  0
   10.4469   -9.9634    0.0000 C   0  0  0  0  0  0  0  0  0  0  0  0
   10.4469  -10.7884    0.0000 C   0  0  0  0  0  0  0  0  0  0  0  0
   11.1613  -11.2009    0.0000 C   0  0  0  0  0  0  0  0  0  0  0  0
   11.8758  -10.7884    0.0000 C   0  0  0  0  0  0  0  0  0  0  0  0
   11.8758   -9.9634    0.0000 C   0  0  0  0  0  0  0  0  0  0  0  0
   12.5903   -9.5509    0.0000 C   0  0  0  0  0  0  0  0  0  0  0  0
   12.5903  -11.2009    0.0000 C   0  0  0  0  0  0  0  0  0  0  0  0
   13.3047  -10.7884    0.0000 C   0  0  0  0  0  0  0  0  0  0  0  0
   13.3047   -9.9634    0.0000 C   0  0  2  0  0  0  0  0  0  0  0  0
   14.0192   -9.5509    0.0000 C   0  0  0  0  0  0  0  0  0  0  0  0
   14.0192  -11.2009    0.0000 C   0  0  0  0  0  0  0  0  0  0  0  0
   14.7337  -10.7884    0.0000 C   0  0  1  0  0  0  0  0  0  0  0  0
   14.7337   -9.9634    0.0000 C   0  0  2  0  0  0  0  0  0  0  0  0
   15.4481   -9.5509    0.0000 C   0  0  0  0  0  0  0  0  0  0  0  0
   15.4481  -11.2009    0.0000 C   0  0  0  0  0  0  0  0  0  0  0  0
   16.1626  -10.7884    0.0000 C   0  0  0  0  0  0  0  0  0  0  0  0
   16.1626   -9.9634    0.0000 C   0  0  0  0  0  0  0  0  0  0  0  0
   14.7337   -9.1384    0.0000 H   0  0  0  0  0  0  0  0  0  0  0  0
   13.3047   -9.1384    0.0000 H   0  0  0  0  0  0  0  0  0  0  0  0
   14.7337  -11.6134    0.0000 O   0  0  0  0  0  0  0  0  0  0  0  0
   16.8771   -9.5509    0.0000 O   0  0  0  0  0  0  0  0  0  0  0  0
   11.1613  -12.0259    0.0000 O   0  0  0  0  0  0  0  0  0  0  0  0
   12.5903  -12.0259    0.0000 O   0  0  0  0  0  0  0  0  0  0  0  0
   14.0192  -12.0259    0.0000 O   0  0  0  0  0  0  0  0  0  0  0  0
   15.4481  -12.0259    0.0000 O   0  0  0  0  0  0  0  0  0  0  0  0
   13.8937  -12.0984    0.0000 H   0  0  0  0  0  0  0  0  0  0  0  0
   17.6886  -10.0194    0.0000 H   0  0  0  0  0  0  0  0  0  0  0  0
   10.3498  -12.4944    0.0000 H   0  0  0  0  0  0  0  0  0  0  0  0
   13.2077  -12.4944    0.0000 H   0  0  0  0  0  0  0  0  0  0  0  0
  1  2  2  0  0  0  0
  1  6  1  0  0  0  0
  2  3  1  0  0  0  0
  3  4  2  0  0  0  0
  4  5  1  0  0  0  0
  4 23  1  0  0  0  0
  5  8  1  0  0  0  0
  6  5  2  0  0  0  0
  7  6  1  0  0  0  0
  7 10  1  0  0  0  0
  8  9  1  0  0  0  0
  8 24  2  0  0  0  0
  9 12  2  0  0  0  0
 10  9  1  0  0  0  0
 10 20  1  6  0  0  0
 11 10  1  0  0  0  0
 11 14  1  0  0  0  0
 12 13  1  0  0  0  0
 12 25  1  0  0  0  0
 13 14  1  6  0  0  0
 13 16  1  0  0  0  0
 13 21  1  0  0  0  0
 14 19  1  6  0  0  0
 15 14  1  0  0  0  0
 15 18  1  0  0  0  0
 16 17  1  0  0  0  0
 16 26  2  0  0  0  0
 17 18  2  0  0  0  0
 18 22  1  0  0  0  0
 21 27  1  0  0  0  0
 22 28  1  0  0  0  0
 23 29  1  0  0  0  0
 25 30  1  0  0  0  0
M  END
$$$$
Clc1cccc(c1C)Cl
 OpenBabel07182308452D

  9  9  0  0  0  0  0  0  0  0999 V2000
   14.9998   -9.5113    0.0000 C   0  0  0  0  0  0  0  0  0  0  0  0
   14.2821   -9.0959    0.0000 C   0  0  0  0  0  0  0  0  0  0  0  0
   14.9929  -10.3321    0.0000 C   0  0  0  0  0  0  0  0  0  0  0  0
   15.7106   -9.0925    0.0000 C   0  0  0  0  0  0  0  0  0  0  0  0
   15.7106  -10.7442    0.0000 C   0  0  0  0  0  0  0  0  0  0  0  0
   14.2787  -10.7407    0.0000 Cl  0  0  0  0  0  0  0  0  0  0  0  0
   16.4248   -9.5045    0.0000 C   0  0  0  0  0  0  0  0  0  0  0  0
   15.7071   -8.2649    0.0000 Cl  0  0  0  0  0  0  0  0  0  0  0  0
   16.4248  -10.3321    0.0000 C   0  0  0  0  0  0  0  0  0  0  0  0
  1  2  1  0  0  0  0
  1  3  2  0  0  0  0
  1  4  1  0  0  0  0
  3  5  1  0  0  0  0
  3  6  1  0  0  0  0
  4  7  2  0  0  0  0
  4  8  1  0  0  0  0
  5  9  2  0  0  0  0
  7  9  1  0  0  0  0
M  END
$$$$
O[C@H]1CO[C@H]2[C@@H]1OCC2
 OpenBabel07182308452D

 12 13  0  0  1  0  0  0  0  0999 V2000
    3.2642   -1.0948    0.0000 O   0  0  0  0  0  0  0  0  0  0  0  0
    4.8296    0.2366    0.0000 O   0  0  0  0  0  0  0  0  0  0  0  0
    5.0858   -1.8755    0.0000 O   0  0  0  0  0  0  0  0  0  0  0  0
    4.0488   -0.0149    0.0000 C   0  0  1  0  0  0  0  0  0  0  0  0
    4.0488   -0.8399    0.0000 C   0  0  1  0  0  0  0  0  0  0  0  0
    3.2642    0.2402    0.0000 C   0  0  0  0  0  0  0  0  0  0  0  0
    4.8296   -1.0913    0.0000 C   0  0  2  0  0  0  0  0  0  0  0  0
    2.7792   -0.4274    0.0000 C   0  0  0  0  0  0  0  0  0  0  0  0
    5.3110   -0.4274    0.0000 C   0  0  0  0  0  0  0  0  0  0  0  0
    4.0497    0.6452    0.0000 H   0  0  0  0  0  0  0  0  0  0  0  0
    4.0497   -1.4999    0.0000 H   0  0  0  0  0  0  0  0  0  0  0  0
    4.4379   -2.5974    0.0000 H   0  0  0  0  0  0  0  0  0  0  0  0
  1  5  1  0  0  0  0
  1  8  1  0  0  0  0
  2  4  1  0  0  0  0
  2  9  1  0  0  0  0
  3 12  1  0  0  0  0
  4  5  1  6  0  0  0
  4  6  1  0  0  0  0
  4 10  1  0  0  0  0
  5 11  1  6  0  0  0
  6  8  1  0  0  0  0
  7  3  1  0  0  0  0
  7  5  1  6  0  0  0
  7  9  1  0  0  0  0
M  END
$$$$
O=C1C(=C(C)C(=O)c2c1cccc2)C
 OpenBabel07182308452D

 14 15  0  0  1  0  0  0  0  0999 V2000
    0.0000   -0.4125    0.0000 C   0  0  0  0  0  0  0  0  0  0  0  0
    0.7145   -0.8250    0.0000 C   0  0  0  0  0  0  0  0  0  0  0  0
    0.0000    0.4125    0.0000 C   0  0  0  0  0  0  0  0  0  0  0  0
    0.7145    0.8250    0.0000 C   0  0  0  0  0  0  0  0  0  0  0  0
   -0.7145    0.8250    0.0000 C   0  0  0  0  0  0  0  0  0  0  0  0
   -0.7145   -0.8250    0.0000 C   0  0  0  0  0  0  0  0  0  0  0  0
    1.4289    0.4125    0.0000 C   0  0  0  0  0  0  0  0  0  0  0  0
   -1.4289    0.4125    0.0000 C   0  0  0  0  0  0  0  0  0  0  0  0
    1.4289   -0.4125    0.0000 C   0  0  0  0  0  0  0  0  0  0  0  0
   -1.4289   -0.4125    0.0000 C   0  0  0  0  0  0  0  0  0  0  0  0
    0.7145    1.6500    0.0000 O   0  0  0  0  0  0  0  0  0  0  0  0
    0.7145   -1.6500    0.0000 O   0  0  0  0  0  0  0  0  0  0  0  0
    2.1434    0.8250    0.0000 C   0  0  0  0  0  0  0  0  0  0  0  0
    2.1434   -0.8250    0.0000 C   0  0  0  0  0  0  0  0  0  0  0  0
  1  2  1  0  0  0  0
  1  6  1  0  0  0  0
  2 12  2  0  0  0  0
  2  9  1  0  0  0  0
  3  1  2  0  0  0  0
  3  4  1  0  0  0  0
  3  5  1  0  0  0  0
  4 11  2  0  0  0  0
  4  7  1  0  0  0  0
  5  8  2  0  0  0  0
  6 10  2  0  0  0  0
  7 13  1  0  0  0  0
  7  9  2  0  0  0  0
  8 10  1  0  0  0  0
  9 14  1  0  0  0  0
M  END
$$$$
Nc1ccc2c(n1)oc1c(c2=O)cccc1
 OpenBabel07182308452D

 18 20  0  0  0  0  0  0  0  0999 V2000
    5.2784   -1.1104    0.0000 O   0  0  0  0  0  0  0  0  0  0  0  0
    5.2784    1.3645    0.0000 O   0  0  0  0  0  0  0  0  0  0  0  0
    6.7303   -1.1391    0.0000 N   0  0  0  0  0  0  0  0  0  0  0  0
    8.1907   -1.1304    0.0000 N   0  0  0  0  0  0  0  0  0  0  0  0
    3.0789    0.1442    0.0000 C   0  0  0  0  0  0  0  0  0  0  0  0
    4.5639    0.1270    0.0000 C   0  0  0  0  0  0  0  0  0  0  0  0
    3.8264    0.5681    0.0000 C   0  0  0  0  0  0  0  0  0  0  0  0
    4.5639   -0.6979    0.0000 C   0  0  0  0  0  0  0  0  0  0  0  0
    3.0789   -0.7151    0.0000 C   0  0  0  0  0  0  0  0  0  0  0  0
    5.9928    0.1270    0.0000 C   0  0  0  0  0  0  0  0  0  0  0  0
    5.2784    0.5395    0.0000 C   0  0  0  0  0  0  0  0  0  0  0  0
    3.8264   -1.1391    0.0000 C   0  0  0  0  0  0  0  0  0  0  0  0
    5.9928   -0.6979    0.0000 C   0  0  0  0  0  0  0  0  0  0  0  0
    6.7303    0.5681    0.0000 C   0  0  0  0  0  0  0  0  0  0  0  0
    7.4778    0.1442    0.0000 C   0  0  0  0  0  0  0  0  0  0  0  0
    7.4778   -0.7151    0.0000 C   0  0  0  0  0  0  0  0  0  0  0  0
    8.1869   -2.1149    0.0000 H   0  0  0  0  0  0  0  0  0  0  0  0
    9.0452   -0.6415    0.0000 H   0  0  0  0  0  0  0  0  0  0  0  0
  1  8  1  0  0  0  0
  1 13  1  0  0  0  0
  2 11  2  0  0  0  0
  3 13  2  0  0  0  0
  3 16  1  0  0  0  0
  4 16  1  0  0  0  0
  4 17  1  0  0  0  0
  4 18  1  0  0  0  0
  5  7  2  0  0  0  0
  5  9  1  0  0  0  0
  6  7  1  0  0  0  0
  6  8  2  0  0  0  0
  6 11  1  0  0  0  0
  8 12  1  0  0  0  0
  9 12  2  0  0  0  0
 10 11  1  0  0  0  0
 10 13  1  0  0  0  0
 10 14  2  0  0  0  0
 14 15  1  0  0  0  0
 15 16  2  0  0  0  0
M  END
$$$$
CC1OCC(O1)C
 OpenBabel07182308452D

  7  7  0  0  0  0  0  0  0  0999 V2000
    2.6984   -1.2375    0.0000 C   0  0  0  0  0  0  0  0  0  0  0  0
    3.3658    0.0725    0.0000 C   0  0  0  0  0  0  0  0  0  0  0  0
    2.6983   -0.4125    0.0000 C   0  0  3  0  0  0  0  0  0  0  0  0
    1.9138   -1.4924    0.0000 O   0  0  0  0  0  0  0  0  0  0  0  0
    1.9138   -0.1575    0.0000 O   0  0  0  0  0  0  0  0  0  0  0  0
    1.4289   -0.8250    0.0000 C   0  0  3  0  0  0  0  0  0  0  0  0
    0.7144   -1.2375    0.0000 C   0  0  0  0  0  0  0  0  0  0  0  0
  3  1  1  0  0  0  0
  3  2  1  0  0  0  0
  4  1  1  0  0  0  0
  4  6  1  0  0  0  0
  5  3  1  0  0  0  0
  6  5  1  0  0  0  0
  6  7  1  0  0  0  0
M  END
$$$$
CC1=NC2(C(=O)N1C)CCCC2
 OpenBabel07182308452D

 12 13  0  0  0  0  0  0  0  0999 V2000
    2.6582   -2.3648    0.0000 O   0  0  0  0  0  0  0  0  0  0  0  0
    4.7777   -2.1099    0.0000 N   0  0  0  0  0  0  0  0  0  0  0  0
    3.6977   -1.3252    0.0000 N   0  0  0  0  0  0  0  0  0  0  0  0
    4.1102   -2.5947    0.0000 C   0  0  0  0  0  0  0  0  0  0  0  0
    4.7777   -3.0797    0.0000 C   0  0  0  0  0  0  0  0  0  0  0  0
    3.4427   -3.0797    0.0000 C   0  0  0  0  0  0  0  0  0  0  0  0
    4.5227   -3.8643    0.0000 C   0  0  0  0  0  0  0  0  0  0  0  0
    3.6977   -3.8643    0.0000 C   0  0  0  0  0  0  0  0  0  0  0  0
    3.4427   -2.1099    0.0000 C   0  0  0  0  0  0  0  0  0  0  0  0
    4.5227   -1.3252    0.0000 C   0  0  0  0  0  0  0  0  0  0  0  0
    5.0076   -0.6578    0.0000 C   0  0  0  0  0  0  0  0  0  0  0  0
    3.2128   -0.6578    0.0000 C   0  0  0  0  0  0  0  0  0  0  0  0
  1  9  2  0  0  0  0
  2  4  1  0  0  0  0
  2 10  2  0  0  0  0
  3  9  1  0  0  0  0
  3 10  1  0  0  0  0
  3 12  1  0  0  0  0
  4  5  1  0  0  0  0
  4  6  1  0  0  0  0
  4  9  1  0  0  0  0
  5  7  1  0  0  0  0
  6  8  1  0  0  0  0
  7  8  1  0  0  0  0
 10 11  1  0  0  0  0
M  END
$$$$
C#CC1(O)CCCCC1
 OpenBabel07182308452D

  9  9  0  0  0  0  0  0  0  0999 V2000
    3.1433    0.6035    0.0000 O   0  0  0  0  0  0  0  0  0  0  0  0
    2.7308   -0.1110    0.0000 C   0  0  0  0  0  0  0  0  0  0  0  0
    2.0163   -0.5235    0.0000 C   0  0  0  0  0  0  0  0  0  0  0  0
    3.4453   -0.5235    0.0000 C   0  0  0  0  0  0  0  0  0  0  0  0
    2.0163   -1.3485    0.0000 C   0  0  0  0  0  0  0  0  0  0  0  0
    3.4453   -1.3485    0.0000 C   0  0  0  0  0  0  0  0  0  0  0  0
    2.7308   -1.7610    0.0000 C   0  0  0  0  0  0  0  0  0  0  0  0
    2.3183    0.6035    0.0000 C   0  0  0  0  0  0  0  0  0  0  0  0
    1.9058    1.3180    0.0000 C   0  0  0  0  0  0  0  0  0  0  0  0
  1  2  1  0  0  0  0
  2  3  1  0  0  0  0
  2  4  1  0  0  0  0
  2  8  1  0  0  0  0
  3  5  1  0  0  0  0
  4  6  1  0  0  0  0
  5  7  1  0  0  0  0
  6  7  1  0  0  0  0
  8  9  3  0  0  0  0
M  END
$$$$
S=c1nc[nH]c2c1[nH]cn2
 OpenBabel07182308452D

 12 13  0  0  0  0  0  0  0  0999 V2000
    2.3644    1.4933    0.0000 S   0  0  0  0  0  0  0  0  0  0  0  0
    3.8596    0.5071    0.0000 N   0  0  0  0  0  0  0  0  0  0  0  0
    2.3644   -0.9818    0.0000 N   0  0  0  0  0  0  0  0  0  0  0  0
    3.8596   -0.8206    0.0000 N   0  0  0  0  0  0  0  0  0  0  0  0
    1.6500    0.2558    0.0000 N   0  0  0  0  0  0  0  0  0  0  0  0
    3.0790    0.2558    0.0000 C   0  0  0  0  0  0  0  0  0  0  0  0
    3.0790   -0.5692    0.0000 C   0  0  0  0  0  0  0  0  0  0  0  0
    2.3644    0.6683    0.0000 C   0  0  0  0  0  0  0  0  0  0  0  0
    4.3411   -0.1568    0.0000 C   0  0  0  0  0  0  0  0  0  0  0  0
    1.6500   -0.5692    0.0000 C   0  0  0  0  0  0  0  0  0  0  0  0
    4.1655    1.4429    0.0000 H   0  0  0  0  0  0  0  0  0  0  0  0
    2.3643   -1.9663    0.0000 H   0  0  0  0  0  0  0  0  0  0  0  0
  1  8  2  0  0  0  0
  2  6  1  0  0  0  0
  2  9  1  0  0  0  0
  2 11  1  0  0  0  0
  3  7  1  0  0  0  0
  3 10  1  0  0  0  0
  3 12  1  0  0  0  0
  4  7  1  0  0  0  0
  4  9  2  0  0  0  0
  5  8  1  0  0  0  0
  5 10  2  0  0  0  0
  6  7  2  0  0  0  0
  6  8  1  0  0  0  0
M  END
$$$$
Cc1ccc(c(c1)C)O
 OpenBabel07182308452D

 10 10  0  0  0  0  0  0  0  0999 V2000
   -3.2411    1.9152    0.0000 C   0  0  0  0  0  0  0  0  0  0  0  0
   -3.9555    1.5027    0.0000 C   0  0  0  0  0  0  0  0  0  0  0  0
   -3.9555    0.6777    0.0000 C   0  0  0  0  0  0  0  0  0  0  0  0
   -3.2411    0.2652    0.0000 C   0  0  0  0  0  0  0  0  0  0  0  0
   -2.5266    0.6777    0.0000 C   0  0  0  0  0  0  0  0  0  0  0  0
   -2.5266    1.5027    0.0000 C   0  0  0  0  0  0  0  0  0  0  0  0
   -1.8121    0.2652    0.0000 C   0  0  0  0  0  0  0  0  0  0  0  0
   -4.6700    0.2652    0.0000 C   0  0  0  0  0  0  0  0  0  0  0  0
   -1.8121    1.9152    0.0000 O   0  0  0  0  0  0  0  0  0  0  0  0
   -1.0006    1.4467    0.0000 H   0  0  0  0  0  0  0  0  0  0  0  0
  1  2  2  0  0  0  0
  1  6  1  0  0  0  0
  2  3  1  0  0  0  0
  3  4  2  0  0  0  0
  3  8  1  0  0  0  0
  4  5  1  0  0  0  0
  5  6  2  0  0  0  0
  5  7  1  0  0  0  0
  6  9  1  0  0  0  0
  9 10  1  0  0  0  0
M  END
$$$$
CC#C
 OpenBabel07182308452D

  3  2  0  0  0  0  0  0  0  0999 V2000
   -2.1474    0.3659    0.0000 C   0  0  0  0  0  0  0  0  0  0  0  0
   -2.8649    0.7683    0.0000 C   0  0  0  0  0  0  0  0  0  0  0  0
   -1.4251   -0.0315    0.0000 C   0  0  0  0  0  0  0  0  0  0  0  0
  2  1  3  0  0  0  0
  3  1  1  0  0  0  0
M  END
$$$$
O=C1NC(=O)c2c1cccc2
 OpenBabel07182308452D

 11 12  0  0  1  0  0  0  0  0999 V2000
    4.1159   -1.4482    0.0000 O   0  0  0  0  0  0  0  0  0  0  0  0
    4.1159    1.4482    0.0000 O   0  0  0  0  0  0  0  0  0  0  0  0
    4.3412    0.0000    0.0000 N   0  0  0  0  0  0  0  0  0  0  0  0
    3.8597   -0.6639    0.0000 C   0  0  0  0  0  0  0  0  0  0  0  0
    3.8597    0.6639    0.0000 C   0  0  0  0  0  0  0  0  0  0  0  0
    3.0791   -0.4125    0.0000 C   0  0  0  0  0  0  0  0  0  0  0  0
    3.0791    0.4125    0.0000 C   0  0  0  0  0  0  0  0  0  0  0  0
    2.3645   -0.8250    0.0000 C   0  0  0  0  0  0  0  0  0  0  0  0
    2.3645    0.8250    0.0000 C   0  0  0  0  0  0  0  0  0  0  0  0
    1.6500   -0.4125    0.0000 C   0  0  0  0  0  0  0  0  0  0  0  0
    1.6500    0.4125    0.0000 C   0  0  0  0  0  0  0  0  0  0  0  0
  1  4  2  0  0  0  0
  2  5  2  0  0  0  0
  3  4  1  0  0  0  0
  3  5  1  0  0  0  0
  4  6  1  0  0  0  0
  5  7  1  0  0  0  0
  6  7  1  0  0  0  0
  6  8  2  0  0  0  0
  7  9  2  0  0  0  0
  8 10  1  0  0  0  0
  9 11  1  0  0  0  0
 10 11  2  0  0  0  0
M  END
$$$$
CC12CC3CC(C1)(C)CC(C2)(C3)N
 OpenBabel07182308452D

 15 17  0  0  1  0  0  0  0  0999 V2000
    2.5024   -1.4994    0.0000 N   0  0  0  0  0  0  0  0  0  0  0  0
    3.0826    0.9204    0.0000 C   0  0  3  0  0  0  0  0  0  0  0  0
    2.3807   -0.2951    0.0000 C   0  0  3  0  0  0  0  0  0  0  0  0
    2.5025   -0.6602    0.0000 C   0  0  3  0  0  0  0  0  0  0  0  0
    3.7843   -0.2951    0.0000 C   0  0  3  0  0  0  0  0  0  0  0  0
    2.3807    0.5153    0.0000 C   0  0  0  0  0  0  0  0  0  0  0  0
    2.5025    0.2170    0.0000 C   0  0  0  0  0  0  0  0  0  0  0  0
    1.6785   -0.7003    0.0000 C   0  0  0  0  0  0  0  0  0  0  0  0
    3.7843    0.5153    0.0000 C   0  0  0  0  0  0  0  0  0  0  0  0
    3.0826   -0.5492    0.0000 C   0  0  0  0  0  0  0  0  0  0  0  0
    3.2626   -1.0604    0.0000 C   0  0  0  0  0  0  0  0  0  0  0  0
    3.0826    1.7596    0.0000 C   0  0  0  0  0  0  0  0  0  0  0  0
    1.7873    0.2983    0.0000 C   0  0  0  0  0  0  0  0  0  0  0  0
    1.6190   -2.0093    0.0000 H   0  0  0  0  0  0  0  0  0  0  0  0
    3.3857   -2.0095    0.0000 H   0  0  0  0  0  0  0  0  0  0  0  0
  1  4  1  0  0  0  0
  1 14  1  0  0  0  0
  1 15  1  0  0  0  0
  2  6  1  0  0  0  0
  2  7  1  0  0  0  0
  2  9  1  0  0  0  0
  2 12  1  0  0  0  0
  3  6  1  0  0  0  0
  3  8  1  0  0  0  0
  3 10  1  0  0  0  0
  3 13  1  0  0  0  0
  4  7  1  0  0  0  0
  4  8  1  0  0  0  0
  4 11  1  0  0  0  0
  5  9  1  0  0  0  0
  5 10  1  0  0  0  0
  5 11  1  0  0  0  0
M  END
$$$$
C[C@@H]1C/C=C/O[C@@]2(C)Oc3c(C2=O)c2c(O)cc(c(c2c(c3C)O)O)NC(=O)/C(=C\C=C\[C@@H]([C@@H]([C@H]([C@H]([C@H]([C@@H]1O)C)O)C)O)C)/C
 OpenBabel07182308452D

 51 54  0  0  0  0  0  0  0  0999 V2000
    1.0895   -0.5562    0.0000 C   0  0  0  0  0  0  0  0  0  0  0  0
    1.0895   -1.3813    0.0000 C   0  0  0  0  0  0  0  0  0  0  0  0
   -0.3395   -1.3813    0.0000 C   0  0  0  0  0  0  0  0  0  0  0  0
    0.3750   -1.7938    0.0000 C   0  0  0  0  0  0  0  0  0  0  0  0
    2.5184   -1.3813    0.0000 C   0  0  0  0  0  0  0  0  0  0  0  0
    2.5184   -0.5562    0.0000 C   0  0  0  0  0  0  0  0  0  0  0  0
    3.2329   -0.1437    0.0000 N   0  0  0  0  0  0  0  0  0  0  0  0
    3.9473    1.9188    0.0000 C   0  0  0  0  0  0  0  0  0  0  0  0
    3.2329    2.3313    0.0000 C   0  0  0  0  0  0  0  0  0  0  0  0
    2.5184    1.9188    0.0000 C   0  0  0  0  0  0  0  0  0  0  0  0
   -1.7684   -1.3812    0.0000 C   0  0  0  0  0  0  0  0  0  0  0  0
   -2.4829   -1.7937    0.0000 C   0  0  0  0  0  0  0  0  0  0  0  0
   -2.4829   -2.6187    0.0000 O   0  0  0  0  0  0  0  0  0  0  0  0
    3.2329    0.6813    0.0000 C   0  0  0  0  0  0  0  0  0  0  0  0
    2.5184    1.0938    0.0000 O   0  0  0  0  0  0  0  0  0  0  0  0
    1.8039   -0.1437    0.0000 C   0  0  0  0  0  0  0  0  0  0  0  0
    1.8039    0.6813    0.0000 O   0  0  0  0  0  0  0  0  0  0  0  0
    0.3750   -0.1437    0.0000 C   0  0  0  0  0  0  0  0  0  0  0  0
    0.3750    0.6813    0.0000 O   0  0  0  0  0  0  0  0  0  0  0  0
   -0.3395   -0.5562    0.0000 C   0  0  0  0  0  0  0  0  0  0  0  0
   -0.5530    0.2406    0.0000 C   0  0  0  0  0  0  0  0  0  0  0  0
   -1.0539   -1.7938    0.0000 O   0  0  0  0  0  0  0  0  0  0  0  0
    0.3750   -2.6188    0.0000 C   0  0  0  0  0  0  0  0  0  0  0  0
    0.9583   -3.2021    0.0000 O   0  0  0  0  0  0  0  0  0  0  0  0
   -1.0539   -2.6188    0.0000 C   0  0  1  0  0  0  0  0  0  0  0  0
   -1.0539   -3.4438    0.0000 C   0  0  0  0  0  0  0  0  0  0  0  0
   -1.0540   -0.1437    0.0000 C   0  0  2  0  0  0  0  0  0  0  0  0
   -1.7684    0.2688    0.0000 C   0  0  0  0  0  0  0  0  0  0  0  0
   -1.7684   -0.5562    0.0000 C   0  0  0  0  0  0  0  0  0  0  0  0
   -1.0540    0.6813    0.0000 C   0  0  1  0  0  0  0  0  0  0  0  0
   -1.7684    1.0938    0.0000 O   0  0  0  0  0  0  0  0  0  0  0  0
   -0.3395    1.0938    0.0000 C   0  0  2  0  0  0  0  0  0  0  0  0
   -1.0540    1.5063    0.0000 C   0  0  0  0  0  0  0  0  0  0  0  0
   -0.3395    1.9188    0.0000 C   0  0  2  0  0  0  0  0  0  0  0  0
   -1.0540    2.3313    0.0000 O   0  0  0  0  0  0  0  0  0  0  0  0
    0.3750    2.3313    0.0000 C   0  0  2  0  0  0  0  0  0  0  0  0
    0.3750    3.1563    0.0000 C   0  0  0  0  0  0  0  0  0  0  0  0
    1.0895    1.9188    0.0000 C   0  0  1  0  0  0  0  0  0  0  0  0
    1.0895    1.0938    0.0000 O   0  0  0  0  0  0  0  0  0  0  0  0
    1.8039    2.3313    0.0000 C   0  0  1  0  0  0  0  0  0  0  0  0
    1.8039    3.1563    0.0000 C   0  0  0  0  0  0  0  0  0  0  0  0
    3.9473    1.0938    0.0000 C   0  0  0  0  0  0  0  0  0  0  0  0
    4.6618    0.6813    0.0000 C   0  0  0  0  0  0  0  0  0  0  0  0
    1.8039   -1.7938    0.0000 C   0  0  0  0  0  0  0  0  0  0  0  0
    1.8039   -2.6188    0.0000 O   0  0  0  0  0  0  0  0  0  0  0  0
    4.0855   -0.6360    0.0000 H   0  0  0  0  0  0  0  0  0  0  0  0
    2.6154    1.1498    0.0000 H   0  0  0  0  0  0  0  0  0  0  0  0
    1.1865    1.1498    0.0000 H   0  0  0  0  0  0  0  0  0  0  0  0
   -1.0540    3.3013    0.0000 H   0  0  0  0  0  0  0  0  0  0  0  0
    0.2495    0.6088    0.0000 H   0  0  0  0  0  0  0  0  0  0  0  0
    0.9924   -3.0873    0.0000 H   0  0  0  0  0  0  0  0  0  0  0  0
  2  1  1  0  0  0  0
  2 44  2  0  0  0  0
  3 22  1  0  0  0  0
  3  4  2  0  0  0  0
  4  2  1  0  0  0  0
  4 23  1  0  0  0  0
  5  6  2  0  0  0  0
  6  7  1  0  0  0  0
  7 14  1  0  0  0  0
  7 46  1  0  0  0  0
  8  9  1  0  0  0  0
  9 10  2  0  0  0  0
 10 40  1  0  0  0  0
 11 12  2  0  0  0  0
 12 13  1  0  0  0  0
 14 42  1  0  0  0  0
 14 15  2  0  0  0  0
 16  1  2  0  0  0  0
 16  6  1  0  0  0  0
 16 17  1  0  0  0  0
 17 47  1  0  0  0  0
 18 20  2  0  0  0  0
 18  1  1  0  0  0  0
 18 19  1  0  0  0  0
 19 48  1  0  0  0  0
 20  3  1  0  0  0  0
 20 21  1  0  0  0  0
 23 25  1  0  0  0  0
 23 24  2  0  0  0  0
 25 22  1  0  0  0  0
 25 13  1  0  0  0  0
 25 26  1  6  0  0  0
 27 29  1  0  0  0  0
 27 28  1  6  0  0  0
 29 11  1  0  0  0  0
 30 27  1  0  0  0  0
 30 31  1  1  0  0  0
 32 30  1  0  0  0  0
 32 33  1  1  0  0  0
 34 32  1  0  0  0  0
 34 35  1  6  0  0  0
 35 49  1  0  0  0  0
 36 34  1  0  0  0  0
 36 37  1  6  0  0  0
 38 36  1  0  0  0  0
 38 39  1  6  0  0  0
 39 50  1  0  0  0  0
 40 38  1  0  0  0  0
 40 41  1  1  0  0  0
 42  8  2  0  0  0  0
 42 43  1  0  0  0  0
 44  5  1  0  0  0  0
 44 45  1  0  0  0  0
 45 51  1  0  0  0  0
M  END
$$$$
O[C@@H]1CC[C@H]2[C@H](O1)CC(=O)[C@@H]2C
 OpenBabel07182308452D

 15 16  0  0  0  0  0  0  0  0999 V2000
   -2.0959    1.3008    0.0000 C   0  0  2  0  0  0  0  0  0  0  0  0
   -2.0959    0.4758    0.0000 C   0  0  0  0  0  0  0  0  0  0  0  0
   -1.3830    0.0633    0.0000 C   0  0  0  0  0  0  0  0  0  0  0  0
   -1.3830    1.7134    0.0000 O   0  0  0  0  0  0  0  0  0  0  0  0
   -0.6702    1.3008    0.0000 C   0  0  1  0  0  0  0  0  0  0  0  0
   -0.6656    0.4748    0.0000 C   0  0  1  0  0  0  0  0  0  0  0  0
    0.1213    0.2238    0.0000 C   0  0  2  0  0  0  0  0  0  0  0  0
    0.6032    0.8948    0.0000 C   0  0  0  0  0  0  0  0  0  0  0  0
    0.1139    1.5603    0.0000 C   0  0  0  0  0  0  0  0  0  0  0  0
    1.4282    0.8994    0.0000 O   0  0  0  0  0  0  0  0  0  0  0  0
   -2.9209    1.3008    0.0000 O   0  0  0  0  0  0  0  0  0  0  0  0
   -0.6788    2.1258    0.0000 H   0  0  0  0  0  0  0  0  0  0  0  0
   -0.6739   -0.3492    0.0000 H   0  0  0  0  0  0  0  0  0  0  0  0
    0.5247   -0.4850    0.0000 C   0  0  0  0  0  0  0  0  0  0  0  0
   -3.4059    2.1408    0.0000 H   0  0  0  0  0  0  0  0  0  0  0  0
  1 11  1  1  0  0  0
  1  2  1  0  0  0  0
  1  4  1  0  0  0  0
  2  3  1  0  0  0  0
  3  6  1  0  0  0  0
  5 12  1  0  0  0  0
  5  4  1  0  0  0  0
  5  6  1  1  0  0  0
  6 13  1  6  0  0  0
  7  6  1  6  0  0  0
  7  8  1  0  0  0  0
  7 14  1  0  0  0  0
  8  9  1  0  0  0  0
  8 10  2  0  0  0  0
  9  5  1  0  0  0  0
 11 15  1  0  0  0  0
M  END
$$$$
O=C1C=C[C@]2(C(=C1)[C@@H](F)C[C@@H]1[C@]2(F)[C@@H](O)C[C@]2([C@H]1C[C@@H]1[C@H]2OC(O1)(C)C)C)C
 OpenBabel07182308452D

 32 36  0  0  0  0  0  0  0  0999 V2000
    1.4907    0.0617    0.0000 C   0  0  1  0  0  0  0  0  0  0  0  0
    0.7061   -0.1931    0.0000 C   0  0  2  0  0  0  0  0  0  0  0  0
    1.9756   -0.6055    0.0000 C   0  0  1  0  0  0  0  0  0  0  0  0
    1.9756    0.7292    0.0000 O   0  0  0  0  0  0  0  0  0  0  0  0
    0.7061   -1.0181    0.0000 C   0  0  1  0  0  0  0  0  0  0  0  0
   -0.0083    0.2194    0.0000 C   0  0  0  0  0  0  0  0  0  0  0  0
    0.6918    0.6363    0.0000 C   0  0  0  0  0  0  0  0  0  0  0  0
    1.4907   -1.2730    0.0000 C   0  0  0  0  0  0  0  0  0  0  0  0
    2.7602   -0.3506    0.0000 O   0  0  0  0  0  0  0  0  0  0  0  0
    2.7602    0.4743    0.0000 C   0  0  0  0  0  0  0  0  0  0  0  0
   -0.0083   -1.4305    0.0000 C   0  0  1  0  0  0  0  0  0  0  0  0
   -0.7228   -0.1931    0.0000 C   0  0  1  0  0  0  0  0  0  0  0  0
    2.9318    1.2813    0.0000 C   0  0  0  0  0  0  0  0  0  0  0  0
    3.5807    0.3880    0.0000 C   0  0  0  0  0  0  0  0  0  0  0  0
   -0.7228   -1.0181    0.0000 C   0  0  2  0  0  0  0  0  0  0  0  0
   -0.0083   -2.2556    0.0000 C   0  0  0  0  0  0  0  0  0  0  0  0
   -1.4373    0.2194    0.0000 O   0  0  0  0  0  0  0  0  0  0  0  0
   -1.4373   -1.4305    0.0000 C   0  0  2  0  0  0  0  0  0  0  0  0
   -0.7185   -1.9082    0.0000 F   0  0  0  0  0  0  0  0  0  0  0  0
   -0.7228   -2.6681    0.0000 C   0  0  1  0  0  0  0  0  0  0  0  0
   -1.4373   -2.2556    0.0000 C   0  0  0  0  0  0  0  0  0  0  0  0
   -2.1517   -1.0181    0.0000 C   0  0  0  0  0  0  0  0  0  0  0  0
   -1.4730   -0.6283    0.0000 C   0  0  0  0  0  0  0  0  0  0  0  0
   -0.7228   -3.4931    0.0000 F   0  0  0  0  0  0  0  0  0  0  0  0
   -2.1517   -2.6681    0.0000 C   0  0  0  0  0  0  0  0  0  0  0  0
   -2.8662   -1.4305    0.0000 C   0  0  0  0  0  0  0  0  0  0  0  0
   -2.8662   -2.2556    0.0000 C   0  0  0  0  0  0  0  0  0  0  0  0
   -3.5807   -2.6681    0.0000 O   0  0  0  0  0  0  0  0  0  0  0  0
    0.7923   -1.8385    0.0000 H   0  0  0  0  0  0  0  0  0  0  0  0
   -0.0490   -0.6302    0.0000 H   0  0  0  0  0  0  0  0  0  0  0  0
    2.3881   -1.3201    0.0000 H   0  0  0  0  0  0  0  0  0  0  0  0
   -1.4373    1.1894    0.0000 H   0  0  0  0  0  0  0  0  0  0  0  0
  1  2  1  6  0  0  0
  1  3  1  0  0  0  0
  1  4  1  0  0  0  0
  2  7  1  0  0  0  0
  2  5  1  1  0  0  0
  2  6  1  0  0  0  0
  3  8  1  0  0  0  0
  3  9  1  0  0  0  0
  3 31  1  1  0  0  0
  4 10  1  0  0  0  0
  5 11  1  1  0  0  0
  5  8  1  0  0  0  0
  5 29  1  0  0  0  0
  6 12  1  0  0  0  0
  9 10  1  0  0  0  0
 10 13  1  0  0  0  0
 10 14  1  0  0  0  0
 11 15  1  6  0  0  0
 11 16  1  0  0  0  0
 11 30  1  0  0  0  0
 12 17  1  0  0  0  0
 12 15  1  1  0  0  0
 15 18  1  1  0  0  0
 15 19  1  0  0  0  0
 16 20  1  0  0  0  0
 17 32  1  0  0  0  0
 18 21  1  0  0  0  0
 18 22  1  0  0  0  0
 18 23  1  1  0  0  0
 20 24  1  6  0  0  0
 20 21  1  0  0  0  0
 21 25  2  0  0  0  0
 22 26  2  0  0  0  0
 25 27  1  0  0  0  0
 26 27  1  0  0  0  0
 27 28  2  0  0  0  0
M  END
$$$$
Nc1nc(N)c2c(n1)[nH]cn2
 OpenBabel07182308452D

 14 15  0  0  0  0  0  0  0  0999 V2000
    0.4879   -0.2134    0.0000 C   0  0  0  0  0  0  0  0  0  0  0  0
    1.2806   -0.4573    0.0000 N   0  0  0  0  0  0  0  0  0  0  0  0
    0.4879    0.6228    0.0000 C   0  0  0  0  0  0  0  0  0  0  0  0
   -0.2221    1.0323    0.0000 C   0  0  0  0  0  0  0  0  0  0  0  0
   -0.2221   -0.6185    0.0000 N   0  0  0  0  0  0  0  0  0  0  0  0
    1.2806    0.8711    0.0000 N   0  0  0  0  0  0  0  0  0  0  0  0
   -0.9408    0.6228    0.0000 N   0  0  0  0  0  0  0  0  0  0  0  0
    1.7641    0.2178    0.0000 C   0  0  0  0  0  0  0  0  0  0  0  0
   -0.9408   -0.2134    0.0000 C   0  0  0  0  0  0  0  0  0  0  0  0
   -0.2221    1.8642    0.0000 N   0  0  0  0  0  0  0  0  0  0  0  0
   -1.6595   -0.6185    0.0000 N   0  0  0  0  0  0  0  0  0  0  0  0
    0.6297    2.3578    0.0000 H   0  0  0  0  0  0  0  0  0  0  0  0
   -2.5070   -0.1175    0.0000 H   0  0  0  0  0  0  0  0  0  0  0  0
   -1.6697   -1.6029    0.0000 H   0  0  0  0  0  0  0  0  0  0  0  0
  2  1  1  0  0  0  0
  3  1  2  0  0  0  0
  4  3  1  0  0  0  0
  5  1  1  0  0  0  0
  6  3  1  0  0  0  0
  7  9  1  0  0  0  0
  7  4  2  0  0  0  0
  8  2  1  0  0  0  0
  8  6  2  0  0  0  0
  9  5  2  0  0  0  0
 10  4  1  0  0  0  0
 10 12  1  0  0  0  0
 11  9  1  0  0  0  0
 11 13  1  0  0  0  0
 11 14  1  0  0  0  0
M  END
$$$$
C1CC=CC1
 OpenBabel07182308452D

  5  5  0  0  0  0  0  0  0  0999 V2000
    1.2719   -2.1866    0.0000 C   0  0  0  0  0  0  0  0  0  0  0  0
    1.0106   -2.9924    0.0000 C   0  0  0  0  0  0  0  0  0  0  0  0
    0.1873   -2.9924    0.0000 C   0  0  0  0  0  0  0  0  0  0  0  0
    0.6142   -1.7162    0.0000 C   0  0  0  0  0  0  0  0  0  0  0  0
   -0.0522   -2.2084    0.0000 C   0  0  0  0  0  0  0  0  0  0  0  0
  2  1  1  0  0  0  0
  3  2  2  0  0  0  0
  4  1  1  0  0  0  0
  5  4  1  0  0  0  0
  5  3  1  0  0  0  0
M  END
$$$$
Oc1ccc2c(c1C)oc(=O)c(c2O)N
 OpenBabel07182308452D

 17 18  0  0  1  0  0  0  0  0999 V2000
   14.8883   -8.3120    0.0000 C   0  0  0  0  0  0  0  0  0  0  0  0
   14.8883   -9.1437    0.0000 C   0  0  0  0  0  0  0  0  0  0  0  0
   14.1700   -7.8998    0.0000 C   0  0  0  0  0  0  0  0  0  0  0  0
   15.6105   -7.8885    0.0000 O   0  0  0  0  0  0  0  0  0  0  0  0
   15.6143   -9.5596    0.0000 C   0  0  0  0  0  0  0  0  0  0  0  0
   14.1700   -9.5634    0.0000 C   0  0  0  0  0  0  0  0  0  0  0  0
   13.4554   -8.3120    0.0000 C   0  0  0  0  0  0  0  0  0  0  0  0
   14.1662   -7.0794    0.0000 C   0  0  0  0  0  0  0  0  0  0  0  0
   16.3782   -8.3044    0.0000 C   0  0  0  0  0  0  0  0  0  0  0  0
   16.3440   -9.1475    0.0000 C   0  0  0  0  0  0  0  0  0  0  0  0
   15.6143  -10.3839    0.0000 O   0  0  0  0  0  0  0  0  0  0  0  0
   13.4554   -9.1437    0.0000 C   0  0  0  0  0  0  0  0  0  0  0  0
   12.7445   -7.9037    0.0000 O   0  0  0  0  0  0  0  0  0  0  0  0
   17.0472   -7.8923    0.0000 O   0  0  0  0  0  0  0  0  0  0  0  0
   17.3044   -9.5067    0.0000 N   0  0  0  0  0  0  0  0  0  0  0  0
   14.8028  -10.8524    0.0000 H   0  0  0  0  0  0  0  0  0  0  0  0
   17.3856  -10.4878    0.0000 H   0  0  0  0  0  0  0  0  0  0  0  0
  1  2  2  0  0  0  0
  1  3  1  0  0  0  0
  1  4  1  0  0  0  0
  2  5  1  0  0  0  0
  2  6  1  0  0  0  0
  3  7  2  0  0  0  0
  3  8  1  0  0  0  0
  4  9  1  0  0  0  0
  5 10  2  0  0  0  0
  5 11  1  0  0  0  0
  6 12  2  0  0  0  0
  7 13  1  0  0  0  0
  7 12  1  0  0  0  0
  9 14  2  0  0  0  0
  9 10  1  0  0  0  0
 10 15  1  0  0  0  0
 11 16  1  0  0  0  0
 15 17  1  0  0  0  0
M  END
$$$$
O[C@H]1COC(C[C@H]1O)(C)C
 OpenBabel07182308452D

 11 11  0  0  1  0  0  0  0  0999 V2000
   12.0339   -8.3157    0.0000 C   0  0  0  0  0  0  0  0  0  0  0  0
   12.0339   -9.1475    0.0000 C   0  0  1  0  0  0  0  0  0  0  0  0
   11.3116   -7.9037    0.0000 O   0  0  0  0  0  0  0  0  0  0  0  0
   11.3116   -9.5672    0.0000 C   0  0  1  0  0  0  0  0  0  0  0  0
   12.7484   -9.5559    0.0000 O   0  0  0  0  0  0  0  0  0  0  0  0
   10.6009   -8.3157    0.0000 C   0  0  0  0  0  0  0  0  0  0  0  0
   10.6009   -9.1475    0.0000 C   0  0  0  0  0  0  0  0  0  0  0  0
   11.3116  -10.3914    0.0000 O   0  0  0  0  0  0  0  0  0  0  0  0
   10.1094   -7.4612    0.0000 C   0  0  0  0  0  0  0  0  0  0  0  0
    9.7502   -8.4821    0.0000 C   0  0  0  0  0  0  0  0  0  0  0  0
   12.7526  -10.5259    0.0000 H   0  0  0  0  0  0  0  0  0  0  0  0
  1  2  1  0  0  0  0
  1  3  1  0  0  0  0
  2  4  1  0  0  0  0
  2  5  1  6  0  0  0
  3  6  1  0  0  0  0
  4  7  1  0  0  0  0
  4  8  1  6  0  0  0
  5 11  1  0  0  0  0
  6  9  1  0  0  0  0
  6 10  1  0  0  0  0
  6  7  1  0  0  0  0
M  END
$$$$
OP(=O)(S)O
 OpenBabel07182308452D

  5  4  0  0  0  0  0  0  0  0999 V2000
    3.3008    1.5700    0.0000 S   0  0  0  0  0  0  0  0  0  0  0  0
    2.5863    1.1574    0.0000 P   0  0  0  0  0  0  0  0  0  0  0  0
    1.8719    0.7450    0.0000 O   0  0  0  0  0  0  0  0  0  0  0  0
    2.1739    1.8719    0.0000 O   0  0  0  0  0  0  0  0  0  0  0  0
    2.9989    0.4429    0.0000 O   0  0  0  0  0  0  0  0  0  0  0  0
  1  2  1  0  0  0  0
  2  3  1  0  0  0  0
  2  4  1  0  0  0  0
  2  5  2  0  0  0  0
M  END
$$$$
O=C1CNCC2N1CCc1c2cccc1
 OpenBabel07182308452D

 15 17  0  0  1  0  0  0  0  0999 V2000
    5.2682   -1.8991    0.0000 O   0  0  0  0  0  0  0  0  0  0  0  0
    5.9961   -0.6330    0.0000 N   0  0  0  0  0  0  0  0  0  0  0  0
    4.5111    0.2091    0.0000 N   0  0  0  0  0  0  0  0  0  0  0  0
    5.9961    0.1920    0.0000 C   0  0  3  0  0  0  0  0  0  0  0  0
    5.2586    0.6330    0.0000 C   0  0  0  0  0  0  0  0  0  0  0  0
    6.7106    0.6045    0.0000 C   0  0  0  0  0  0  0  0  0  0  0  0
    6.7106   -1.0455    0.0000 C   0  0  0  0  0  0  0  0  0  0  0  0
    4.5111   -0.6502    0.0000 C   0  0  0  0  0  0  0  0  0  0  0  0
    7.4251   -0.6330    0.0000 C   0  0  0  0  0  0  0  0  0  0  0  0
    5.2586   -1.0742    0.0000 C   0  0  0  0  0  0  0  0  0  0  0  0
    7.4251    0.1920    0.0000 C   0  0  0  0  0  0  0  0  0  0  0  0
    6.6973    1.4637    0.0000 C   0  0  0  0  0  0  0  0  0  0  0  0
    8.1758    0.6101    0.0000 C   0  0  0  0  0  0  0  0  0  0  0  0
    7.4382    1.8991    0.0000 C   0  0  0  0  0  0  0  0  0  0  0  0
    8.1824    1.4694    0.0000 C   0  0  0  0  0  0  0  0  0  0  0  0
  1 10  2  0  0  0  0
  2  4  1  0  0  0  0
  2  7  1  0  0  0  0
  2 10  1  0  0  0  0
  3  5  1  0  0  0  0
  3  8  1  0  0  0  0
  4  5  1  0  0  0  0
  4  6  1  0  0  0  0
  6 11  1  0  0  0  0
  6 12  2  0  0  0  0
  7  9  1  0  0  0  0
  8 10  1  0  0  0  0
  9 11  1  0  0  0  0
 11 13  2  0  0  0  0
 12 14  1  0  0  0  0
 13 15  1  0  0  0  0
 14 15  2  0  0  0  0
M  END
$$$$
CC#CCN
 OpenBabel07182308452D

  5  4  0  0  1  0  0  0  0  0999 V2000
    6.8559   -2.3092    0.0000 N   0  0  0  0  0  0  0  0  0  0  0  0
    4.7934   -0.1658    0.0000 C   0  0  0  0  0  0  0  0  0  0  0  0
    5.2059   -0.8803    0.0000 C   0  0  0  0  0  0  0  0  0  0  0  0
    6.0309   -2.3092    0.0000 C   0  0  0  0  0  0  0  0  0  0  0  0
    5.6184   -1.5948    0.0000 C   0  0  0  0  0  0  0  0  0  0  0  0
  1  4  1  0  0  0  0
  2  3  1  0  0  0  0
  3  5  3  0  0  0  0
  4  5  1  0  0  0  0
M  END
$$$$
Cc1cnccn1
 OpenBabel07182308452D

  7  7  0  0  0  0  0  0  0  0999 V2000
   -0.4125    2.0072    0.0000 C   0  0  0  0  0  0  0  0  0  0  0  0
   -1.1270    2.4197    0.0000 N   0  0  0  0  0  0  0  0  0  0  0  0
   -1.1270    0.7697    0.0000 N   0  0  0  0  0  0  0  0  0  0  0  0
   -0.4125    1.1822    0.0000 C   0  0  0  0  0  0  0  0  0  0  0  0
   -1.8414    2.0072    0.0000 C   0  0  0  0  0  0  0  0  0  0  0  0
   -1.8414    1.1822    0.0000 C   0  0  0  0  0  0  0  0  0  0  0  0
   -2.5559    0.7697    0.0000 C   0  0  0  0  0  0  0  0  0  0  0  0
  2  1  1  0  0  0  0
  4  1  2  0  0  0  0
  4  3  1  0  0  0  0
  5  2  2  0  0  0  0
  6  3  2  0  0  0  0
  6  5  1  0  0  0  0
  7  6  1  0  0  0  0
M  END
$$$$
O=C1CN=Cc2c(N1)cccc2
 OpenBabel07182308452D

 13 14  0  0  0  0  0  0  0  0999 V2000
    2.3403    2.5929    0.0000 O   0  0  0  0  0  0  0  0  0  0  0  0
    2.1839    1.2046    0.0000 N   0  0  0  0  0  0  0  0  0  0  0  0
    4.0375    1.2046    0.0000 N   0  0  0  0  0  0  0  0  0  0  0  0
    3.1107    0.0423    0.0000 C   0  0  0  0  0  0  0  0  0  0  0  0
    2.3674    0.4003    0.0000 C   0  0  0  0  0  0  0  0  0  0  0  0
    3.8540    0.4003    0.0000 C   0  0  0  0  0  0  0  0  0  0  0  0
    3.1881   -0.8135    0.0000 C   0  0  0  0  0  0  0  0  0  0  0  0
    1.6500   -0.0728    0.0000 C   0  0  0  0  0  0  0  0  0  0  0  0
    3.5232    1.8496    0.0000 C   0  0  0  0  0  0  0  0  0  0  0  0
    2.4818   -1.3031    0.0000 C   0  0  0  0  0  0  0  0  0  0  0  0
    2.6982    1.8496    0.0000 C   0  0  0  0  0  0  0  0  0  0  0  0
    1.7076   -0.9302    0.0000 C   0  0  0  0  0  0  0  0  0  0  0  0
    1.2241    1.4237    0.0000 H   0  0  0  0  0  0  0  0  0  0  0  0
  1 11  2  0  0  0  0
  2  5  1  0  0  0  0
  2 11  1  0  0  0  0
  2 13  1  0  0  0  0
  3  6  2  0  0  0  0
  3  9  1  0  0  0  0
  4  5  2  0  0  0  0
  4  6  1  0  0  0  0
  4  7  1  0  0  0  0
  5  8  1  0  0  0  0
  7 10  2  0  0  0  0
  8 12  2  0  0  0  0
  9 11  1  0  0  0  0
 10 12  1  0  0  0  0
M  END
$$$$
O[C@H]1CC[C@@H](C(=C)C1)C
 OpenBabel07182308452D

 10 10  0  0  1  0  0  0  0  0999 V2000
    4.6340  -15.1974    0.0000 C   0  0  0  0  0  0  0  0  0  0  0  0
    4.6340  -16.0224    0.0000 C   0  0  0  0  0  0  0  0  0  0  0  0
    5.3485  -16.4349    0.0000 C   0  0  0  0  0  0  0  0  0  0  0  0
    3.9197  -16.4349    0.0000 C   0  0  2  0  0  0  0  0  0  0  0  0
    5.3485  -17.2599    0.0000 C   0  0  2  0  0  0  0  0  0  0  0  0
    3.9197  -17.2599    0.0000 C   0  0  0  0  0  0  0  0  0  0  0  0
    4.6340  -17.6724    0.0000 C   0  0  0  0  0  0  0  0  0  0  0  0
    3.2051  -16.0224    0.0000 C   0  0  0  0  0  0  0  0  0  0  0  0
    6.0630  -17.6724    0.0000 O   0  0  0  0  0  0  0  0  0  0  0  0
    6.0630  -18.6424    0.0000 H   0  0  0  0  0  0  0  0  0  0  0  0
  1  2  2  0  0  0  0
  2  3  1  0  0  0  0
  2  4  1  0  0  0  0
  3  5  1  0  0  0  0
  4  6  1  0  0  0  0
  4  8  1  6  0  0  0
  5  7  1  0  0  0  0
  5  9  1  1  0  0  0
  6  7  1  0  0  0  0
  9 10  1  0  0  0  0
M  END
$$$$
Fc1nc(N)c2c(n1)[nH]cn2
 OpenBabel07182308452D

 13 14  0  0  0  0  0  0  0  0999 V2000
    0.4822    0.5251    0.0000 C   0  0  0  0  0  0  0  0  0  0  0  0
    1.2690    0.2787    0.0000 N   0  0  0  0  0  0  0  0  0  0  0  0
    0.4822    1.3594    0.0000 C   0  0  0  0  0  0  0  0  0  0  0  0
   -0.2244    0.1203    0.0000 N   0  0  0  0  0  0  0  0  0  0  0  0
    1.7433    0.9423    0.0000 C   0  0  0  0  0  0  0  0  0  0  0  0
    1.2690    1.6094    0.0000 N   0  0  0  0  0  0  0  0  0  0  0  0
   -0.2244    1.7676    0.0000 C   0  0  0  0  0  0  0  0  0  0  0  0
   -0.9495    0.5251    0.0000 C   0  0  0  0  0  0  0  0  0  0  0  0
   -0.9495    1.3594    0.0000 N   0  0  0  0  0  0  0  0  0  0  0  0
   -0.2244    2.5972    0.0000 N   0  0  0  0  0  0  0  0  0  0  0  0
   -1.6632    0.1203    0.0000 F   0  0  0  0  0  0  0  0  0  0  0  0
    0.6282    3.0895    0.0000 H   0  0  0  0  0  0  0  0  0  0  0  0
   -1.0770    3.0894    0.0000 H   0  0  0  0  0  0  0  0  0  0  0  0
  1  2  1  0  0  0  0
  1  3  2  0  0  0  0
  1  4  1  0  0  0  0
  2  5  1  0  0  0  0
  3  6  1  0  0  0  0
  3  7  1  0  0  0  0
  4  8  2  0  0  0  0
  5  6  2  0  0  0  0
  7  9  2  0  0  0  0
  7 10  1  0  0  0  0
  8 11  1  0  0  0  0
  8  9  1  0  0  0  0
 10 12  1  0  0  0  0
 10 13  1  0  0  0  0
M  END
$$$$
Cn1cccc1
 OpenBabel07182308452D

  6  6  0  0  1  0  0  0  0  0999 V2000
   16.0170  -14.9185    0.0000 N   0  0  0  0  0  0  0  0  0  0  0  0
   15.2326  -15.1734    0.0000 C   0  0  0  0  0  0  0  0  0  0  0  0
   16.2721  -14.1339    0.0000 C   0  0  0  0  0  0  0  0  0  0  0  0
   16.6846  -15.4035    0.0000 C   0  0  0  0  0  0  0  0  0  0  0  0
   17.0971  -14.1339    0.0000 C   0  0  0  0  0  0  0  0  0  0  0  0
   17.3520  -14.9185    0.0000 C   0  0  0  0  0  0  0  0  0  0  0  0
  1  2  1  0  0  0  0
  1  3  1  0  0  0  0
  1  4  1  0  0  0  0
  3  5  2  0  0  0  0
  4  6  2  0  0  0  0
  5  6  1  0  0  0  0
M  END
$$$$
O[C@@H]1C[C@H]2[C@H]([C@@]3([C@@]1(C)CCC3)O)CC[C@H]1[C@]2(C)CCCC1
 OpenBabel07182308452D

 23 26  0  0  1  0  0  0  0  0999 V2000
   22.3855   -9.2231    0.0000 C   0  0  2  0  0  0  0  0  0  0  0  0
   21.6829   -9.6365    0.0000 C   0  0  1  0  0  0  0  0  0  0  0  0
   22.3855   -8.3967    0.0000 C   0  0  1  0  0  0  0  0  0  0  0  0
   20.9803   -9.2231    0.0000 C   0  0  1  0  0  0  0  0  0  0  0  0
   21.6829  -10.4218    0.0000 C   0  0  0  0  0  0  0  0  0  0  0  0
   21.6829   -8.0246    0.0000 C   0  0  1  0  0  0  0  0  0  0  0  0
   22.3442   -7.6940    0.0000 C   0  0  0  0  0  0  0  0  0  0  0  0
   20.2778   -9.5952    0.0000 C   0  0  2  0  0  0  0  0  0  0  0  0
   20.9803   -8.3967    0.0000 C   0  0  0  0  0  0  0  0  0  0  0  0
   20.9803  -10.8350    0.0000 C   0  0  0  0  0  0  0  0  0  0  0  0
   20.2778  -10.4218    0.0000 C   0  0  2  0  0  0  0  0  0  0  0  0
   19.5751   -9.2231    0.0000 C   0  0  0  0  0  0  0  0  0  0  0  0
   20.2778   -8.8512    0.0000 C   0  0  0  0  0  0  0  0  0  0  0  0
   19.5751  -10.8350    0.0000 C   0  0  0  0  0  0  0  0  0  0  0  0
   18.8725   -9.5952    0.0000 C   0  0  0  0  0  0  0  0  0  0  0  0
   18.8725  -10.4218    0.0000 C   0  0  0  0  0  0  0  0  0  0  0  0
   21.6829   -7.1980    0.0000 O   0  0  0  0  0  0  0  0  0  0  0  0
   23.1294   -9.4712    0.0000 C   0  0  0  0  0  0  0  0  0  0  0  0
   23.6252   -8.8512    0.0000 C   0  0  0  0  0  0  0  0  0  0  0  0
   23.1708   -8.1899    0.0000 C   0  0  0  0  0  0  0  0  0  0  0  0
   22.3855  -10.0497    0.0000 O   0  0  0  0  0  0  0  0  0  0  0  0
   22.5229   -6.7130    0.0000 H   0  0  0  0  0  0  0  0  0  0  0  0
   21.5455  -10.5347    0.0000 H   0  0  0  0  0  0  0  0  0  0  0  0
  1  3  1  1  0  0  0
  1 18  1  0  0  0  0
  1 21  1  0  0  0  0
  2  1  1  6  0  0  0
  2  4  1  0  0  0  0
  2  5  1  0  0  0  0
  3  7  1  1  0  0  0
  3 20  1  0  0  0  0
  4  8  1  1  0  0  0
  4  9  1  0  0  0  0
  5 10  1  0  0  0  0
  6  3  1  1  0  0  0
  6  9  1  0  0  0  0
  6 17  1  0  0  0  0
  8 12  1  0  0  0  0
  8 13  1  1  0  0  0
 10 11  1  0  0  0  0
 11  8  1  6  0  0  0
 11 14  1  0  0  0  0
 12 15  1  0  0  0  0
 14 16  1  0  0  0  0
 15 16  1  0  0  0  0
 17 22  1  0  0  0  0
 18 19  1  0  0  0  0
 19 20  1  0  0  0  0
 21 23  1  0  0  0  0
M  END
$$$$
CCC#N
 OpenBabel07182308452D

  4  3  0  0  0  0  0  0  0  0999 V2000
    5.7751   -1.5553    0.0000 N   0  0  0  0  0  0  0  0  0  0  0  0
    4.1251   -0.7303    0.0000 C   0  0  0  0  0  0  0  0  0  0  0  0
    4.1251   -1.5553    0.0000 C   0  0  0  0  0  0  0  0  0  0  0  0
    4.9501   -1.5553    0.0000 C   0  0  0  0  0  0  0  0  0  0  0  0
  1  4  3  0  0  0  0
  2  3  1  0  0  0  0
  3  4  1  0  0  0  0
M  END
$$$$
O[C@@H]1OC[C@@H]([C@H](C1)O)O
 OpenBabel07182308452D

 11 11  0  0  1  0  0  0  0  0999 V2000
   -3.1109    2.0943    0.0000 C   0  0  0  0  0  0  0  0  0  0  0  0
   -3.9359    2.0943    0.0000 C   0  0  1  0  0  0  0  0  0  0  0  0
   -3.1109    3.5234    0.0000 O   0  0  0  0  0  0  0  0  0  0  0  0
   -2.6984    2.8089    0.0000 C   0  0  1  0  0  0  0  0  0  0  0  0
   -4.3484    2.8089    0.0000 C   0  0  2  0  0  0  0  0  0  0  0  0
   -3.9359    3.5234    0.0000 C   0  0  0  0  0  0  0  0  0  0  0  0
   -1.8734    2.8089    0.0000 O   0  0  0  0  0  0  0  0  0  0  0  0
   -5.1734    2.8088    0.0000 O   0  0  0  0  0  0  0  0  0  0  0  0
   -4.3484    1.3799    0.0000 O   0  0  0  0  0  0  0  0  0  0  0  0
   -5.6585    3.6488    0.0000 H   0  0  0  0  0  0  0  0  0  0  0  0
   -5.3184    1.3799    0.0000 H   0  0  0  0  0  0  0  0  0  0  0  0
  1  4  1  0  0  0  0
  2  1  1  0  0  0  0
  2  9  1  6  0  0  0
  3  4  1  0  0  0  0
  3  6  1  0  0  0  0
  4  7  1  1  0  0  0
  5  2  1  0  0  0  0
  5  8  1  1  0  0  0
  6  5  1  0  0  0  0
  8 10  1  0  0  0  0
  9 11  1  0  0  0  0
M  END
$$$$
O[C@@H]1O[C@H](C(C1)O)C
 OpenBabel07182308452D

  9  9  0  0  1  0  0  0  0  0999 V2000
   -0.9759    4.7459    0.0000 C   0  0  2  0  0  0  0  0  0  0  0  0
   -0.9759    5.5709    0.0000 C   0  0  0  0  0  0  0  0  0  0  0  0
   -0.3084    4.2610    0.0000 O   0  0  0  0  0  0  0  0  0  0  0  0
   -0.5634    3.4763    0.0000 C   0  0  2  0  0  0  0  0  0  0  0  0
   -1.3884    3.4763    0.0000 C   0  0  0  0  0  0  0  0  0  0  0  0
   -0.0785    2.8089    0.0000 O   0  0  0  0  0  0  0  0  0  0  0  0
   -1.6434    4.2610    0.0000 C   0  0  3  0  0  0  0  0  0  0  0  0
   -2.4402    4.0474    0.0000 O   0  0  0  0  0  0  0  0  0  0  0  0
   -3.1262    4.7332    0.0000 H   0  0  0  0  0  0  0  0  0  0  0  0
  1  7  1  0  0  0  0
  1  2  1  6  0  0  0
  3  1  1  0  0  0  0
  3  4  1  0  0  0  0
  4  6  1  1  0  0  0
  5  4  1  0  0  0  0
  7  5  1  0  0  0  0
  7  8  1  0  0  0  0
  8  9  1  0  0  0  0
M  END
$$$$
O[C@H]1[C@H](N)C[C@@H]([C@H]([C@@H]1N)O)O
 OpenBabel07182308452D

 16 16  0  0  1  0  0  0  0  0999 V2000
    1.9839    2.0944    0.0000 C   0  0  1  0  0  0  0  0  0  0  0  0
    2.3964    1.3800    0.0000 O   0  0  0  0  0  0  0  0  0  0  0  0
    0.7464    2.8089    0.0000 C   0  0  0  0  0  0  0  0  0  0  0  0
    1.9839    3.5234    0.0000 C   0  0  1  0  0  0  0  0  0  0  0  0
    2.3964    4.2378    0.0000 O   0  0  0  0  0  0  0  0  0  0  0  0
    1.1589    3.5234    0.0000 C   0  0  2  0  0  0  0  0  0  0  0  0
    2.3964    2.8089    0.0000 C   0  0  1  0  0  0  0  0  0  0  0  0
    1.1589    2.0944    0.0000 C   0  0  2  0  0  0  0  0  0  0  0  0
    0.7464    1.3799    0.0000 O   0  0  0  0  0  0  0  0  0  0  0  0
    0.7464    4.2378    0.0000 N   0  0  0  0  0  0  0  0  0  0  0  0
    3.2213    2.8089    0.0000 N   0  0  0  0  0  0  0  0  0  0  0  0
    1.9114    0.5399    0.0000 H   0  0  0  0  0  0  0  0  0  0  0  0
    3.3664    4.2378    0.0000 H   0  0  0  0  0  0  0  0  0  0  0  0
   -0.2236    1.3799    0.0000 H   0  0  0  0  0  0  0  0  0  0  0  0
   -0.2381    4.2378    0.0000 H   0  0  0  0  0  0  0  0  0  0  0  0
    3.7135    3.6615    0.0000 H   0  0  0  0  0  0  0  0  0  0  0  0
  1  2  1  6  0  0  0
  2 12  1  0  0  0  0
  3  8  1  0  0  0  0
  4  6  1  0  0  0  0
  4  5  1  6  0  0  0
  5 13  1  0  0  0  0
  6  3  1  0  0  0  0
  6 10  1  1  0  0  0
  7  1  1  0  0  0  0
  7  4  1  0  0  0  0
  7 11  1  1  0  0  0
  8  1  1  0  0  0  0
  8  9  1  1  0  0  0
  9 14  1  0  0  0  0
 10 15  1  0  0  0  0
 11 16  1  0  0  0  0
M  END
$$$$
C[C@H]1[C@H](C)OC1=O
 OpenBabel07182308452D

  7  7  0  0  1  0  0  0  0  0999 V2000
    6.6160   -0.3494    0.0000 O   0  0  0  0  0  0  0  0  0  0  0  0
    5.2076    0.2340    0.0000 O   0  0  0  0  0  0  0  0  0  0  0  0
    6.6160   -1.1744    0.0000 C   0  0  2  0  0  0  0  0  0  0  0  0
    5.7909   -1.1744    0.0000 C   0  0  2  0  0  0  0  0  0  0  0  0
    7.1993   -1.7578    0.0000 C   0  0  0  0  0  0  0  0  0  0  0  0
    5.2076   -1.7578    0.0000 C   0  0  0  0  0  0  0  0  0  0  0  0
    5.7909   -0.3494    0.0000 C   0  0  0  0  0  0  0  0  0  0  0  0
  1  3  1  0  0  0  0
  1  7  1  0  0  0  0
  2  7  2  0  0  0  0
  3  4  1  0  0  0  0
  3  5  1  1  0  0  0
  4  6  1  6  0  0  0
  4  7  1  0  0  0  0
M  END
$$$$
CN1CCNCCC1
 OpenBabel07182308452D

  8  8  0  0  1  0  0  0  0  0999 V2000
    5.1662   -1.6589    0.0000 N   0  0  0  0  0  0  0  0  0  0  0  0
    6.9735   -2.0714    0.0000 N   0  0  0  0  0  0  0  0  0  0  0  0
    5.5242   -0.9155    0.0000 C   0  0  0  0  0  0  0  0  0  0  0  0
    5.5242   -2.4022    0.0000 C   0  0  0  0  0  0  0  0  0  0  0  0
    6.3285   -0.7320    0.0000 C   0  0  0  0  0  0  0  0  0  0  0  0
    6.3285   -2.5858    0.0000 C   0  0  0  0  0  0  0  0  0  0  0  0
    6.9735   -1.2464    0.0000 C   0  0  0  0  0  0  0  0  0  0  0  0
    7.7168   -2.4293    0.0000 C   0  0  0  0  0  0  0  0  0  0  0  0
  1  3  1  0  0  0  0
  1  4  1  0  0  0  0
  2  6  1  0  0  0  0
  2  7  1  0  0  0  0
  2  8  1  0  0  0  0
  3  5  1  0  0  0  0
  4  6  1  0  0  0  0
  5  7  1  0  0  0  0
M  END
$$$$
C[C@@H]1CC(=O)OC1
 OpenBabel07182308452D

  7  7  0  0  1  0  0  0  0  0999 V2000
    4.1277   -1.4158    0.0000 O   0  0  0  0  0  0  0  0  0  0  0  0
    2.8178   -2.0833    0.0000 O   0  0  0  0  0  0  0  0  0  0  0  0
    3.7152   -0.1463    0.0000 C   0  0  1  0  0  0  0  0  0  0  0  0
    3.0478   -0.6312    0.0000 C   0  0  0  0  0  0  0  0  0  0  0  0
    3.7152    0.6787    0.0000 C   0  0  0  0  0  0  0  0  0  0  0  0
    4.3827   -0.6312    0.0000 C   0  0  0  0  0  0  0  0  0  0  0  0
    3.3027   -1.4158    0.0000 C   0  0  0  0  0  0  0  0  0  0  0  0
  1  6  1  0  0  0  0
  1  7  1  0  0  0  0
  2  7  2  0  0  0  0
  3  4  1  0  0  0  0
  3  5  1  1  0  0  0
  3  6  1  0  0  0  0
  4  7  1  0  0  0  0
M  END
$$$$
C/C=C/1\C[C@@H]2[C@H](C1)C[C@@H](C2)O
 OpenBabel07182308452D

 14 15  0  0  0  0  0  0  0  0999 V2000
   -1.8005   -0.8684    0.0000 O   0  0  0  0  0  0  0  0  0  0  0  0
    0.3071   -0.4554    0.0000 C   0  0  1  0  0  0  0  0  0  0  0  0
    0.3071   -1.2815    0.0000 C   0  0  2  0  0  0  0  0  0  0  0  0
   -0.4766   -0.2012    0.0000 C   0  0  0  0  0  0  0  0  0  0  0  0
   -0.4766   -1.5358    0.0000 C   0  0  0  0  0  0  0  0  0  0  0  0
   -0.9638   -0.8684    0.0000 C   0  0  1  0  0  0  0  0  0  0  0  0
    1.0909   -0.2012    0.0000 C   0  0  0  0  0  0  0  0  0  0  0  0
    1.0909   -1.5358    0.0000 C   0  0  0  0  0  0  0  0  0  0  0  0
    1.5675   -0.8684    0.0000 C   0  0  0  0  0  0  0  0  0  0  0  0
    2.4042   -0.8684    0.0000 C   0  0  0  0  0  0  0  0  0  0  0  0
    2.8173   -1.5887    0.0000 C   0  0  0  0  0  0  0  0  0  0  0  0
    0.3071    0.2436    0.0000 H   0  0  0  0  0  0  0  0  0  0  0  0
    0.3071   -1.9806    0.0000 H   0  0  0  0  0  0  0  0  0  0  0  0
   -2.2855   -0.0284    0.0000 H   0  0  0  0  0  0  0  0  0  0  0  0
  1 14  1  0  0  0  0
  2  3  1  6  0  0  0
  2  4  1  0  0  0  0
  2  7  1  0  0  0  0
  2 12  1  0  0  0  0
  3  5  1  0  0  0  0
  3  8  1  0  0  0  0
  3 13  1  6  0  0  0
  4  6  1  0  0  0  0
  5  6  1  0  0  0  0
  6  1  1  1  0  0  0
  7  9  1  0  0  0  0
  8  9  1  0  0  0  0
  9 10  2  0  0  0  0
 10 11  1  0  0  0  0
M  END
$$$$
CC#CC
 OpenBabel07182308452D

  4  3  0  0  0  0  0  0  0  0999 V2000
   -2.8702    2.5101    0.0000 C   0  0  0  0  0  0  0  0  0  0  0  0
   -3.6753    2.6797    0.0000 C   0  0  0  0  0  0  0  0  0  0  0  0
   -4.4908    2.8490    0.0000 C   0  0  0  0  0  0  0  0  0  0  0  0
   -5.2958    3.0185    0.0000 C   0  0  0  0  0  0  0  0  0  0  0  0
  1  2  1  0  0  0  0
  2  3  3  0  0  0  0
  3  4  1  0  0  0  0
M  END
$$$$
O[C@H]1CO[C@H]([C@@H]([C@H]1O)O)C
 OpenBabel07182308452D

 13 13  0  0  1  0  0  0  0  0999 V2000
    4.2402   -0.7810    0.0000 O   0  0  0  0  0  0  0  0  0  0  0  0
    3.5177   -2.8408    0.0000 O   0  0  0  0  0  0  0  0  0  0  0  0
    2.0920   -2.0103    0.0000 O   0  0  0  0  0  0  0  0  0  0  0  0
    2.0983   -0.3603    0.0000 O   0  0  0  0  0  0  0  0  0  0  0  0
    4.2370   -1.6060    0.0000 C   0  0  0  0  0  0  0  0  0  0  0  0
    3.5209   -2.0158    0.0000 C   0  0  1  0  0  0  0  0  0  0  0  0
    2.8081   -1.6005    0.0000 C   0  0  1  0  0  0  0  0  0  0  0  0
    3.5273   -0.3658    0.0000 C   0  0  2  0  0  0  0  0  0  0  0  0
    2.8112   -0.7755    0.0000 C   0  0  2  0  0  0  0  0  0  0  0  0
    3.5304    0.4592    0.0000 C   0  0  0  0  0  0  0  0  0  0  0  0
    2.6758   -3.3225    0.0000 H   0  0  0  0  0  0  0  0  0  0  0  0
    1.2538   -1.5221    0.0000 H   0  0  0  0  0  0  0  0  0  0  0  0
    2.1020    0.6097    0.0000 H   0  0  0  0  0  0  0  0  0  0  0  0
  1  5  1  0  0  0  0
  1  8  1  0  0  0  0
  2 11  1  0  0  0  0
  3 12  1  0  0  0  0
  4 13  1  0  0  0  0
  5  6  1  0  0  0  0
  6  2  1  6  0  0  0
  6  7  1  0  0  0  0
  7  3  1  6  0  0  0
  7  9  1  0  0  0  0
  8  9  1  0  0  0  0
  8 10  1  6  0  0  0
  9  4  1  1  0  0  0
M  END
$$$$
O[C@H]1C[C@@H](O)C2[C@](C1)(O)CC[C@@H]1[C@@H]2[C@H](O)C[C@]2([C@]1(O)CCC2)C
 OpenBabel07182308452D

 29 32  0  0  1  0  0  0  0  0999 V2000
    9.3991   -1.1531    0.0000 O   0  0  0  0  0  0  0  0  0  0  0  0
    7.2065   -2.4305    0.0000 O   0  0  0  0  0  0  0  0  0  0  0  0
    7.2557    0.9094    0.0000 O   0  0  0  0  0  0  0  0  0  0  0  0
    5.9368    0.3612    0.0000 O   0  0  0  0  0  0  0  0  0  0  0  0
    4.9498   -2.0213    0.0000 O   0  0  0  0  0  0  0  0  0  0  0  0
    7.9702   -0.3281    0.0000 C   0  0  1  0  0  0  0  0  0  0  0  0
    8.6847   -0.7406    0.0000 C   0  0  2  0  0  0  0  0  0  0  0  0
    9.3991   -0.3281    0.0000 C   0  0  1  0  0  0  0  0  0  0  0  0
    9.3991    0.4969    0.0000 C   0  0  2  0  0  0  0  0  0  0  0  0
    7.2194   -0.7463    0.0000 C   0  0  3  0  0  0  0  0  0  0  0  0
    7.2128   -1.6056    0.0000 C   0  0  1  0  0  0  0  0  0  0  0  0
    7.9702    0.4969    0.0000 C   0  0  1  0  0  0  0  0  0  0  0  0
    8.6847    0.9094    0.0000 C   0  0  0  0  0  0  0  0  0  0  0  0
   10.1798    0.7483    0.0000 C   0  0  0  0  0  0  0  0  0  0  0  0
    8.6979   -1.5998    0.0000 C   0  0  0  0  0  0  0  0  0  0  0  0
   10.1798   -0.5795    0.0000 C   0  0  0  0  0  0  0  0  0  0  0  0
    7.9570   -2.0353    0.0000 C   0  0  0  0  0  0  0  0  0  0  0  0
    6.4548   -0.2809    0.0000 C   0  0  1  0  0  0  0  0  0  0  0  0
   10.6612    0.0844    0.0000 C   0  0  0  0  0  0  0  0  0  0  0  0
    6.4411   -2.0591    0.0000 C   0  0  0  0  0  0  0  0  0  0  0  0
    9.3991    1.3219    0.0000 C   0  0  0  0  0  0  0  0  0  0  0  0
    5.6728   -0.7164    0.0000 C   0  0  0  0  0  0  0  0  0  0  0  0
    5.6659   -1.6116    0.0000 C   0  0  2  0  0  0  0  0  0  0  0  0
    8.5418    0.0019    0.0000 H   0  0  0  0  0  0  0  0  0  0  0  0
    9.2588   -1.0662    0.0000 H   0  0  0  0  0  0  0  0  0  0  0  0
    8.5591   -1.6381    0.0000 H   0  0  0  0  0  0  0  0  0  0  0  0
    6.3628   -2.9091    0.0000 H   0  0  0  0  0  0  0  0  0  0  0  0
    7.2557    1.8794    0.0000 H   0  0  0  0  0  0  0  0  0  0  0  0
    6.2861    1.2661    0.0000 H   0  0  0  0  0  0  0  0  0  0  0  0
  1 26  1  0  0  0  0
  2 27  1  0  0  0  0
  3 28  1  0  0  0  0
  4 29  1  0  0  0  0
  6  7  1  1  0  0  0
  6 10  1  0  0  0  0
  6 24  1  0  0  0  0
  7  8  1  6  0  0  0
  7 15  1  0  0  0  0
  7 25  1  0  0  0  0
  8  1  1  0  0  0  0
  8  9  1  1  0  0  0
  8 16  1  0  0  0  0
  9 13  1  0  0  0  0
  9 14  1  0  0  0  0
  9 21  1  1  0  0  0
 10 11  1  0  0  0  0
 10 18  1  0  0  0  0
 11  2  1  1  0  0  0
 11 17  1  0  0  0  0
 11 20  1  0  0  0  0
 12  3  1  0  0  0  0
 12  6  1  6  0  0  0
 12 13  1  0  0  0  0
 14 19  1  0  0  0  0
 15 17  1  0  0  0  0
 16 19  1  0  0  0  0
 18  4  1  1  0  0  0
 18 22  1  0  0  0  0
 20 23  1  0  0  0  0
 22 23  1  0  0  0  0
 23  5  1  1  0  0  0
M  END
$$$$
C1CCc2c(N1)cccc2
 OpenBabel07182308452D

 11 12  0  0  1  0  0  0  0  0999 V2000
    5.2454   -0.9688    0.0000 N   0  0  0  0  0  0  0  0  0  0  0  0
    5.9929   -0.5448    0.0000 C   0  0  0  0  0  0  0  0  0  0  0  0
    5.9929    0.3145    0.0000 C   0  0  0  0  0  0  0  0  0  0  0  0
    5.2454    0.7385    0.0000 C   0  0  0  0  0  0  0  0  0  0  0  0
    4.5079    0.2973    0.0000 C   0  0  0  0  0  0  0  0  0  0  0  0
    4.5079   -0.5277    0.0000 C   0  0  0  0  0  0  0  0  0  0  0  0
    3.7935    0.7098    0.0000 C   0  0  0  0  0  0  0  0  0  0  0  0
    3.7935   -0.9402    0.0000 C   0  0  0  0  0  0  0  0  0  0  0  0
    3.0790    0.2973    0.0000 C   0  0  0  0  0  0  0  0  0  0  0  0
    3.0790   -0.5277    0.0000 C   0  0  0  0  0  0  0  0  0  0  0  0
    5.2341   -1.9532    0.0000 H   0  0  0  0  0  0  0  0  0  0  0  0
  1  2  1  0  0  0  0
  1  6  1  0  0  0  0
  1 11  1  0  0  0  0
  2  3  1  0  0  0  0
  3  4  1  0  0  0  0
  4  5  1  0  0  0  0
  5  6  1  0  0  0  0
  5  7  2  0  0  0  0
  6  8  2  0  0  0  0
  7  9  1  0  0  0  0
  8 10  1  0  0  0  0
  9 10  2  0  0  0  0
M  END
$$$$
Nc1nc(=O)[nH]cc1F
 OpenBabel07182308452D

 12 12  0  0  1  0  0  0  0  0999 V2000
    4.5080    2.2494    0.0000 F   0  0  0  0  0  0  0  0  0  0  0  0
    1.6500    0.5993    0.0000 O   0  0  0  0  0  0  0  0  0  0  0  0
    3.0791    0.5993    0.0000 N   0  0  0  0  0  0  0  0  0  0  0  0
    2.3645    1.8369    0.0000 N   0  0  0  0  0  0  0  0  0  0  0  0
    3.0791    3.0743    0.0000 N   0  0  0  0  0  0  0  0  0  0  0  0
    3.7935    1.0119    0.0000 C   0  0  0  0  0  0  0  0  0  0  0  0
    2.3645    1.0119    0.0000 C   0  0  0  0  0  0  0  0  0  0  0  0
    3.7935    1.8369    0.0000 C   0  0  0  0  0  0  0  0  0  0  0  0
    3.0791    2.2494    0.0000 C   0  0  0  0  0  0  0  0  0  0  0  0
    3.0792   -0.3852    0.0000 H   0  0  0  0  0  0  0  0  0  0  0  0
    3.9317    3.5666    0.0000 H   0  0  0  0  0  0  0  0  0  0  0  0
    2.2265    3.5665    0.0000 H   0  0  0  0  0  0  0  0  0  0  0  0
  1  8  1  0  0  0  0
  2  7  2  0  0  0  0
  3  6  1  0  0  0  0
  3  7  1  0  0  0  0
  3 10  1  0  0  0  0
  4  7  1  0  0  0  0
  4  9  2  0  0  0  0
  5  9  1  0  0  0  0
  5 11  1  0  0  0  0
  5 12  1  0  0  0  0
  6  8  2  0  0  0  0
  8  9  1  0  0  0  0
M  END
$$$$
C1CCc2c(C1)cccc2
 OpenBabel07182308452D

 10 11  0  0  1  0  0  0  0  0999 V2000
    3.0786    0.2063    0.0000 C   0  0  0  0  0  0  0  0  0  0  0  0
    2.3641    0.6187    0.0000 C   0  0  0  0  0  0  0  0  0  0  0  0
    3.0786    1.8561    0.0000 C   0  0  0  0  0  0  0  0  0  0  0  0
    2.3641    1.4436    0.0000 C   0  0  0  0  0  0  0  0  0  0  0  0
    3.7929    0.6187    0.0000 C   0  0  0  0  0  0  0  0  0  0  0  0
    3.7929    1.4436    0.0000 C   0  0  0  0  0  0  0  0  0  0  0  0
    4.5304    0.1776    0.0000 C   0  0  0  0  0  0  0  0  0  0  0  0
    4.5304    1.8847    0.0000 C   0  0  0  0  0  0  0  0  0  0  0  0
    5.2778    0.6015    0.0000 C   0  0  0  0  0  0  0  0  0  0  0  0
    5.2778    1.4607    0.0000 C   0  0  0  0  0  0  0  0  0  0  0  0
  1  2  1  0  0  0  0
  1  5  1  0  0  0  0
  2  4  1  0  0  0  0
  3  4  1  0  0  0  0
  3  6  1  0  0  0  0
  5  6  1  0  0  0  0
  5  7  2  0  0  0  0
  6  8  2  0  0  0  0
  7  9  1  0  0  0  0
  8 10  1  0  0  0  0
  9 10  2  0  0  0  0
M  END
$$$$
C[C@H]1CCCNC1
 OpenBabel07182308452D

  7  7  0  0  0  0  0  0  0  0999 V2000
    1.4289    2.4267    0.0000 C   0  0  0  0  0  0  0  0  0  0  0  0
    0.7144    2.0142    0.0000 C   0  0  2  0  0  0  0  0  0  0  0  0
    0.7144    1.1892    0.0000 C   0  0  0  0  0  0  0  0  0  0  0  0
    0.0000    0.7767    0.0000 N   0  0  0  0  0  0  0  0  0  0  0  0
   -0.7144    1.1892    0.0000 C   0  0  0  0  0  0  0  0  0  0  0  0
   -0.7144    2.0142    0.0000 C   0  0  0  0  0  0  0  0  0  0  0  0
    0.0000    2.4267    0.0000 C   0  0  0  0  0  0  0  0  0  0  0  0
  2  1  1  6  0  0  0
  2  3  1  0  0  0  0
  2  7  1  0  0  0  0
  3  4  1  0  0  0  0
  4  5  1  0  0  0  0
  5  6  1  0  0  0  0
  6  7  1  0  0  0  0
M  END
$$$$
N#CC1CCCCC1
 OpenBabel07182308452D

  8  8  0  0  0  0  0  0  0  0999 V2000
    0.0000   -0.0482    0.0000 C   0  0  0  0  0  0  0  0  0  0  0  0
   -0.7144   -0.4607    0.0000 C   0  0  0  0  0  0  0  0  0  0  0  0
   -0.7144   -1.2857    0.0000 C   0  0  0  0  0  0  0  0  0  0  0  0
    0.0000   -1.6982    0.0000 C   0  0  0  0  0  0  0  0  0  0  0  0
    0.7144   -1.2857    0.0000 C   0  0  0  0  0  0  0  0  0  0  0  0
    0.7144   -0.4607    0.0000 C   0  0  0  0  0  0  0  0  0  0  0  0
   -0.3873   -2.4267    0.0000 C   0  0  0  0  0  0  0  0  0  0  0  0
   -0.7746   -3.1551    0.0000 N   0  0  0  0  0  0  0  0  0  0  0  0
  1  2  1  0  0  0  0
  1  6  1  0  0  0  0
  2  3  1  0  0  0  0
  3  4  1  0  0  0  0
  4  5  1  0  0  0  0
  4  7  1  0  0  0  0
  5  6  1  0  0  0  0
  7  8  3  0  0  0  0
M  END
$$$$
O=C1NCC(C(=O)C1)C
 OpenBabel07182308452D

 10 10  0  0  1  0  0  0  0  0999 V2000
    1.6500    0.1106    0.0000 O   0  0  0  0  0  0  0  0  0  0  0  0
    4.5080    0.1106    0.0000 O   0  0  0  0  0  0  0  0  0  0  0  0
    3.7935   -1.1270    0.0000 N   0  0  0  0  0  0  0  0  0  0  0  0
    3.0791    0.1106    0.0000 C   0  0  0  0  0  0  0  0  0  0  0  0
    2.3645   -1.1270    0.0000 C   0  0  3  0  0  0  0  0  0  0  0  0
    2.3645   -0.3020    0.0000 C   0  0  0  0  0  0  0  0  0  0  0  0
    3.7935   -0.3020    0.0000 C   0  0  0  0  0  0  0  0  0  0  0  0
    3.0791   -1.5395    0.0000 C   0  0  0  0  0  0  0  0  0  0  0  0
    1.6500   -1.5395    0.0000 C   0  0  0  0  0  0  0  0  0  0  0  0
    4.6461   -1.6192    0.0000 H   0  0  0  0  0  0  0  0  0  0  0  0
  1  6  2  0  0  0  0
  2  7  2  0  0  0  0
  3  7  1  0  0  0  0
  3  8  1  0  0  0  0
  3 10  1  0  0  0  0
  4  6  1  0  0  0  0
  4  7  1  0  0  0  0
  5  6  1  0  0  0  0
  5  8  1  0  0  0  0
  5  9  1  0  0  0  0
M  END
$$$$
N#CC1=C(O)[C@@H]2[C@]3([C@@](C1)(C)[C@H]1CC[C@]4([C@H]([C@@H]1CC3)CC[C@@H]4O)C)O2
 OpenBabel07182308452D

 29 33  0  0  0  0  0  0  0  0999 V2000
   -0.9919    0.0929    0.0000 C   0  0  0  0  0  0  0  0  0  0  0  0
   -1.7065   -0.3196    0.0000 C   0  0  0  0  0  0  0  0  0  0  0  0
   -1.7065   -1.1447    0.0000 C   0  0  0  0  0  0  0  0  0  0  0  0
   -0.9919   -1.5571    0.0000 C   0  0  2  0  0  0  0  0  0  0  0  0
   -0.2775   -1.1447    0.0000 C   0  0  1  0  0  0  0  0  0  0  0  0
   -0.2775   -0.3196    0.0000 C   0  0  1  0  0  0  0  0  0  0  0  0
    0.4368    0.0929    0.0000 C   0  0  2  0  0  0  0  0  0  0  0  0
    0.4368   -1.5571    0.0000 C   0  0  0  0  0  0  0  0  0  0  0  0
    1.1514   -1.1447    0.0000 C   0  0  0  0  0  0  0  0  0  0  0  0
    1.1514   -0.3196    0.0000 C   0  0  1  0  0  0  0  0  0  0  0  0
    1.1514    1.3304    0.0000 C   0  0  0  0  0  0  0  0  0  0  0  0
    0.4368    0.9179    0.0000 C   0  0  0  0  0  0  0  0  0  0  0  0
    1.8658    0.0929    0.0000 C   0  0  1  0  0  0  0  0  0  0  0  0
    1.8658    0.9179    0.0000 C   0  0  1  0  0  0  0  0  0  0  0  0
    2.6505    1.1728    0.0000 C   0  0  2  0  0  0  0  0  0  0  0  0
    2.6505   -0.1620    0.0000 C   0  0  0  0  0  0  0  0  0  0  0  0
    3.1354    0.5053    0.0000 C   0  0  0  0  0  0  0  0  0  0  0  0
   -2.4208   -1.5571    0.0000 O   0  0  0  0  0  0  0  0  0  0  0  0
   -2.4208    0.0928    0.0000 C   0  0  0  0  0  0  0  0  0  0  0  0
   -3.1353    0.5053    0.0000 N   0  0  0  0  0  0  0  0  0  0  0  0
   -0.2775   -1.9696    0.0000 O   0  0  0  0  0  0  0  0  0  0  0  0
    0.4368   -0.7320    0.0000 H   0  0  0  0  0  0  0  0  0  0  0  0
    1.8658   -0.7320    0.0000 H   0  0  0  0  0  0  0  0  0  0  0  0
   -0.2775    0.5053    0.0000 C   0  0  0  0  0  0  0  0  0  0  0  0
    1.8658    1.7429    0.0000 C   0  0  0  0  0  0  0  0  0  0  0  0
    2.8640    1.9697    0.0000 O   0  0  0  0  0  0  0  0  0  0  0  0
    1.1514    0.5053    0.0000 H   0  0  0  0  0  0  0  0  0  0  0  0
   -3.2323   -1.0886    0.0000 H   0  0  0  0  0  0  0  0  0  0  0  0
    3.8009    2.2208    0.0000 H   0  0  0  0  0  0  0  0  0  0  0  0
  1  2  1  0  0  0  0
  1  6  1  0  0  0  0
  2  3  2  0  0  0  0
  2 19  1  0  0  0  0
  3  4  1  0  0  0  0
  3 18  1  0  0  0  0
  4  5  1  6  0  0  0
  4 21  1  0  0  0  0
  5  6  1  6  0  0  0
  5  8  1  0  0  0  0
  5 21  1  0  0  0  0
  6  7  1  6  0  0  0
  6 24  1  0  0  0  0
  7 10  1  1  0  0  0
  7 22  1  0  0  0  0
  8  9  1  0  0  0  0
  9 10  1  0  0  0  0
 10 13  1  6  0  0  0
 10 27  1  0  0  0  0
 11 12  1  0  0  0  0
 11 14  1  0  0  0  0
 12  7  1  0  0  0  0
 13 16  1  0  0  0  0
 13 14  1  6  0  0  0
 13 23  1  0  0  0  0
 14 25  1  1  0  0  0
 15 14  1  1  0  0  0
 15 17  1  0  0  0  0
 15 26  1  0  0  0  0
 16 17  1  0  0  0  0
 18 28  1  0  0  0  0
 19 20  3  0  0  0  0
 26 29  1  0  0  0  0
M  END
$$$$
[O-]S(=O)(=O)C
 OpenBabel07182308452D

  5  4  0  0  1  0  0  0  0  0999 V2000
    9.8947   10.0289    0.0000 S   0  0  0  0  0  0  0  0  0  0  0  0
    9.3740   10.6688    0.0000 O   0  5  0  0  0  0  0  0  0  0  0  0
    9.2547    9.5082    0.0000 O   0  0  0  0  0  0  0  0  0  0  0  0
   10.5347   10.5495    0.0000 O   0  0  0  0  0  0  0  0  0  0  0  0
   10.4154    9.3889    0.0000 C   0  0  0  0  0  0  0  0  0  0  0  0
  1  2  1  0  0  0  0
  1  3  2  0  0  0  0
  1  4  2  0  0  0  0
  1  5  1  0  0  0  0
M  CHG  1   2  -1
M  END
$$$$
O=C1NCCC(N)C(=O)NC(C)C(=O)NC(C)C(=O)NC(C(=O)NC(C(=O)NC(C(=O)NC1)C)C)C
 OpenBabel07182308452D

 44 44  0  0  1  0  0  0  0  0999 V2000
   16.5334    9.5561    0.0000 O   0  0  0  0  0  0  0  0  0  0  0  0
   18.6297    7.3115    0.0000 O   0  0  0  0  0  0  0  0  0  0  0  0
   13.4621    9.5561    0.0000 O   0  0  0  0  0  0  0  0  0  0  0  0
   11.3657    7.3115    0.0000 O   0  0  0  0  0  0  0  0  0  0  0  0
   18.4201    4.2474    0.0000 O   0  0  0  0  0  0  0  0  0  0  0  0
   16.0377    2.3091    0.0000 O   0  0  0  0  0  0  0  0  0  0  0  0
   12.9950    2.7273    0.0000 O   0  0  0  0  0  0  0  0  0  0  0  0
   16.9096    8.3707    0.0000 N   0  0  0  0  0  0  0  0  0  0  0  0
   14.5853    9.0220    0.0000 N   0  0  0  0  0  0  0  0  0  0  0  0
   18.0202    6.2274    0.0000 N   0  0  0  0  0  0  0  0  0  0  0  0
   12.5228    7.7678    0.0000 N   0  0  0  0  0  0  0  0  0  0  0  0
   11.1522    6.2838    0.0000 N   0  0  0  0  0  0  0  0  0  0  0  0
   17.2118    3.9529    0.0000 N   0  0  0  0  0  0  0  0  0  0  0  0
   14.9978    2.9912    0.0000 N   0  0  0  0  0  0  0  0  0  0  0  0
   12.7837    3.9529    0.0000 N   0  0  0  0  0  0  0  0  0  0  0  0
   15.4103    9.0220    0.0000 C   0  0  3  0  0  0  0  0  0  0  0  0
   17.4728    7.7678    0.0000 C   0  0  3  0  0  0  0  0  0  0  0  0
   15.5226    9.8393    0.0000 C   0  0  0  0  0  0  0  0  0  0  0  0
   18.1468    8.2436    0.0000 C   0  0  0  0  0  0  0  0  0  0  0  0
   16.2047    8.7994    0.0000 C   0  0  0  0  0  0  0  0  0  0  0  0
   13.0859    8.3707    0.0000 C   0  0  3  0  0  0  0  0  0  0  0  0
   17.8523    7.0352    0.0000 C   0  0  0  0  0  0  0  0  0  0  0  0
   17.9639    5.4043    0.0000 C   0  0  3  0  0  0  0  0  0  0  0  0
   13.7908    8.7994    0.0000 C   0  0  0  0  0  0  0  0  0  0  0  0
   11.9754    6.2274    0.0000 C   0  0  3  0  0  0  0  0  0  0  0  0
   12.5652    9.0107    0.0000 C   0  0  0  0  0  0  0  0  0  0  0  0
   18.7716    5.2365    0.0000 C   0  0  0  0  0  0  0  0  0  0  0  0
   12.0316    5.4043    0.0000 C   0  0  0  0  0  0  0  0  0  0  0  0
   16.5719    3.4322    0.0000 C   0  0  3  0  0  0  0  0  0  0  0  0
   12.1432    7.0352    0.0000 C   0  0  0  0  0  0  0  0  0  0  0  0
   17.6876    4.6270    0.0000 C   0  0  0  0  0  0  0  0  0  0  0  0
   12.3079    4.6270    0.0000 C   0  0  0  0  0  0  0  0  0  0  0  0
   17.0005    2.7273    0.0000 C   0  0  0  0  0  0  0  0  0  0  0  0
   14.1804    3.1035    0.0000 C   0  0  0  0  0  0  0  0  0  0  0  0
   15.8151    3.1035    0.0000 C   0  0  0  0  0  0  0  0  0  0  0  0
   13.4237    3.4322    0.0000 C   0  0  0  0  0  0  0  0  0  0  0  0
   17.5309    9.1344    0.0000 H   0  0  0  0  0  0  0  0  0  0  0  0
   14.4512    9.9973    0.0000 H   0  0  0  0  0  0  0  0  0  0  0  0
   19.0024    6.2946    0.0000 H   0  0  0  0  0  0  0  0  0  0  0  0
   11.7185    8.3356    0.0000 H   0  0  0  0  0  0  0  0  0  0  0  0
   10.7193    7.1680    0.0000 H   0  0  0  0  0  0  0  0  0  0  0  0
   17.9314    3.2810    0.0000 H   0  0  0  0  0  0  0  0  0  0  0  0
   14.9978    2.0067    0.0000 H   0  0  0  0  0  0  0  0  0  0  0  0
   12.0642    3.2809    0.0000 H   0  0  0  0  0  0  0  0  0  0  0  0
  1 20  2  0  0  0  0
  2 22  2  0  0  0  0
  3 24  2  0  0  0  0
  4 30  2  0  0  0  0
  5 31  2  0  0  0  0
  6 35  2  0  0  0  0
  7 36  2  0  0  0  0
  8 17  1  0  0  0  0
  8 20  1  0  0  0  0
  8 37  1  0  0  0  0
  9 16  1  0  0  0  0
  9 24  1  0  0  0  0
  9 38  1  0  0  0  0
 10 22  1  0  0  0  0
 10 23  1  0  0  0  0
 10 39  1  0  0  0  0
 11 21  1  0  0  0  0
 11 30  1  0  0  0  0
 11 40  1  0  0  0  0
 12 25  1  0  0  0  0
 12 41  1  0  0  0  0
 13 29  1  0  0  0  0
 13 31  1  0  0  0  0
 13 42  1  0  0  0  0
 14 34  1  0  0  0  0
 14 35  1  0  0  0  0
 14 43  1  0  0  0  0
 15 32  1  0  0  0  0
 15 36  1  0  0  0  0
 15 44  1  0  0  0  0
 16 18  1  0  0  0  0
 16 20  1  0  0  0  0
 17 19  1  0  0  0  0
 17 22  1  0  0  0  0
 21 24  1  0  0  0  0
 21 26  1  0  0  0  0
 23 27  1  0  0  0  0
 23 31  1  0  0  0  0
 25 28  1  0  0  0  0
 25 30  1  0  0  0  0
 28 32  1  0  0  0  0
 29 33  1  0  0  0  0
 29 35  1  0  0  0  0
 34 36  1  0  0  0  0
M  END
$$$$
Cc1nccc2c1cccc2
 OpenBabel07182308452D

 11 12  0  0  0  0  0  0  0  0999 V2000
    5.2785    1.0324    0.0000 N   0  0  0  0  0  0  0  0  0  0  0  0
    3.7935    1.0496    0.0000 C   0  0  0  0  0  0  0  0  0  0  0  0
    4.5215   -0.2165    0.0000 C   0  0  0  0  0  0  0  0  0  0  0  0
    4.5310    0.6084    0.0000 C   0  0  0  0  0  0  0  0  0  0  0  0
    3.7935    1.8746    0.0000 C   0  0  0  0  0  0  0  0  0  0  0  0
    3.0790    0.6371    0.0000 C   0  0  0  0  0  0  0  0  0  0  0  0
    3.0790    2.2871    0.0000 C   0  0  0  0  0  0  0  0  0  0  0  0
    2.3645    1.0496    0.0000 C   0  0  0  0  0  0  0  0  0  0  0  0
    4.5310    2.3157    0.0000 C   0  0  0  0  0  0  0  0  0  0  0  0
    2.3645    1.8746    0.0000 C   0  0  0  0  0  0  0  0  0  0  0  0
    5.2785    1.8918    0.0000 C   0  0  0  0  0  0  0  0  0  0  0  0
  1  4  2  0  0  0  0
  1 11  1  0  0  0  0
  2  4  1  0  0  0  0
  2  5  1  0  0  0  0
  2  6  2  0  0  0  0
  3  4  1  0  0  0  0
  5  7  2  0  0  0  0
  5  9  1  0  0  0  0
  6  8  1  0  0  0  0
  7 10  1  0  0  0  0
  8 10  2  0  0  0  0
  9 11  2  0  0  0  0
M  END
$$$$
O=C1N(C)C2C(N1C)C[S+]1C2CCC1
 OpenBabel07182308452D

 14 16  0  0  1  0  0  0  0  0999 V2000
    2.9779    1.7856    0.0000 S   0  3  3  0  0  0  0  0  0  0  0  0
    4.9509   -0.9300    0.0000 O   0  0  0  0  0  0  0  0  0  0  0  0
    3.6458   -0.2633    0.0000 N   0  0  0  0  0  0  0  0  0  0  0  0
    4.7200    0.5172    0.0000 N   0  0  0  0  0  0  0  0  0  0  0  0
    3.3904    0.5160    0.0000 C   0  0  3  0  0  0  0  0  0  0  0  0
    2.7228    1.0010    0.0000 C   0  0  3  0  0  0  0  0  0  0  0  0
    4.0578    1.0010    0.0000 C   0  0  3  0  0  0  0  0  0  0  0  0
    3.8029    1.7856    0.0000 C   0  0  0  0  0  0  0  0  0  0  0  0
    1.9028    1.0031    0.0000 C   0  0  0  0  0  0  0  0  0  0  0  0
    2.3131    2.2660    0.0000 C   0  0  0  0  0  0  0  0  0  0  0  0
    1.6500    1.7833    0.0000 C   0  0  0  0  0  0  0  0  0  0  0  0
    4.4659   -0.2625    0.0000 C   0  0  0  0  0  0  0  0  0  0  0  0
    3.1620   -0.9315    0.0000 C   0  0  0  0  0  0  0  0  0  0  0  0
    5.5051    0.7708    0.0000 C   0  0  0  0  0  0  0  0  0  0  0  0
  1  6  1  0  0  0  0
  1  8  1  0  0  0  0
  1 10  1  0  0  0  0
  2 12  2  0  0  0  0
  3  5  1  0  0  0  0
  3 12  1  0  0  0  0
  3 13  1  0  0  0  0
  4  7  1  0  0  0  0
  4 12  1  0  0  0  0
  4 14  1  0  0  0  0
  5  6  1  0  0  0  0
  5  7  1  0  0  0  0
  6  9  1  0  0  0  0
  7  8  1  0  0  0  0
  9 11  1  0  0  0  0
 10 11  1  0  0  0  0
M  CHG  1   1   1
M  END
$$$$
O=C1C=C(O)C(=O)c2c1cccc2
 OpenBabel07182308452D

 14 15  0  0  0  0  0  0  0  0999 V2000
   -1.0719   -0.4145    0.0000 C   0  0  0  0  0  0  0  0  0  0  0  0
   -1.0629   -1.2392    0.0000 C   0  0  0  0  0  0  0  0  0  0  0  0
   -1.7866   -0.0023    0.0000 C   0  0  0  0  0  0  0  0  0  0  0  0
   -1.7775   -1.6608    0.0000 C   0  0  0  0  0  0  0  0  0  0  0  0
   -2.4968   -0.4238    0.0000 C   0  0  0  0  0  0  0  0  0  0  0  0
   -2.4968   -1.2484    0.0000 C   0  0  0  0  0  0  0  0  0  0  0  0
   -1.7912    0.8223    0.0000 O   0  0  0  0  0  0  0  0  0  0  0  0
   -1.7775   -2.4853    0.0000 O   0  0  0  0  0  0  0  0  0  0  0  0
   -0.3481   -1.6515    0.0000 O   0  0  0  0  0  0  0  0  0  0  0  0
   -3.2114   -0.0115    0.0000 C   0  0  0  0  0  0  0  0  0  0  0  0
   -3.2114   -1.6653    0.0000 C   0  0  0  0  0  0  0  0  0  0  0  0
   -3.9215   -0.4238    0.0000 C   0  0  0  0  0  0  0  0  0  0  0  0
   -3.9215   -1.2529    0.0000 C   0  0  0  0  0  0  0  0  0  0  0  0
   -0.3477   -2.5885    0.0000 H   0  0  0  0  0  0  0  0  0  0  0  0
  2  1  2  0  0  0  0
  3  1  1  0  0  0  0
  4  2  1  0  0  0  0
  5  3  1  0  0  0  0
  6  5  1  0  0  0  0
  6  4  1  0  0  0  0
  7  3  2  0  0  0  0
  8  4  2  0  0  0  0
  9  2  1  0  0  0  0
  9 14  1  0  0  0  0
 10  5  2  0  0  0  0
 11  6  2  0  0  0  0
 12 10  1  0  0  0  0
 13 12  2  0  0  0  0
 13 11  1  0  0  0  0
M  END
$$$$
Cc1cc2c(o1)cccc2
 OpenBabel07182308452D

 10 11  0  0  0  0  0  0  0  0999 V2000
   -2.1050    0.2612    0.0000 C   0  0  0  0  0  0  0  0  0  0  0  0
   -2.9255    0.1750    0.0000 C   0  0  0  0  0  0  0  0  0  0  0  0
   -1.7695   -0.4923    0.0000 C   0  0  0  0  0  0  0  0  0  0  0  0
   -3.0971   -0.6318    0.0000 C   0  0  0  0  0  0  0  0  0  0  0  0
   -3.5387    0.7269    0.0000 C   0  0  0  0  0  0  0  0  0  0  0  0
   -2.3826   -1.0445    0.0000 O   0  0  0  0  0  0  0  0  0  0  0  0
   -0.9624   -0.6639    0.0000 C   0  0  0  0  0  0  0  0  0  0  0  0
   -3.8817   -0.8869    0.0000 C   0  0  0  0  0  0  0  0  0  0  0  0
   -4.3233    0.4722    0.0000 C   0  0  0  0  0  0  0  0  0  0  0  0
   -4.4948   -0.3347    0.0000 C   0  0  0  0  0  0  0  0  0  0  0  0
  1  2  1  0  0  0  0
  1  3  2  0  0  0  0
  2  4  2  0  0  0  0
  2  5  1  0  0  0  0
  3  6  1  0  0  0  0
  3  7  1  0  0  0  0
  4  8  1  0  0  0  0
  4  6  1  0  0  0  0
  5  9  2  0  0  0  0
  8 10  2  0  0  0  0
  9 10  1  0  0  0  0
M  END
$$$$
Clc1ccc2c(c1)S(=O)(=O)N=C(N2)C
 OpenBabel07182308452D

 15 16  0  0  0  0  0  0  0  0999 V2000
    5.7524   -0.7138    0.0000 Cl  0  0  0  0  0  0  0  0  0  0  0  0
    2.9562   -0.6947    0.0000 S   0  0  0  0  0  0  0  0  0  0  0  0
    3.3523   -1.3807    0.0000 O   0  0  0  0  0  0  0  0  0  0  0  0
    2.5601   -1.3807    0.0000 O   0  0  0  0  0  0  0  0  0  0  0  0
    2.9562    0.8895    0.0000 N   0  0  0  0  0  0  0  0  0  0  0  0
    2.2702   -0.2986    0.0000 N   0  0  0  0  0  0  0  0  0  0  0  0
    3.6422   -0.2986    0.0000 C   0  0  0  0  0  0  0  0  0  0  0  0
    3.6422    0.4934    0.0000 C   0  0  0  0  0  0  0  0  0  0  0  0
    2.2702    0.4934    0.0000 C   0  0  0  0  0  0  0  0  0  0  0  0
    4.3502   -0.7221    0.0000 C   0  0  0  0  0  0  0  0  0  0  0  0
    4.3502    0.9170    0.0000 C   0  0  0  0  0  0  0  0  0  0  0  0
    5.0680   -0.3151    0.0000 C   0  0  0  0  0  0  0  0  0  0  0  0
    5.0680    0.5100    0.0000 C   0  0  0  0  0  0  0  0  0  0  0  0
    1.5842    0.8895    0.0000 C   0  0  0  0  0  0  0  0  0  0  0  0
    2.9562    1.8740    0.0000 H   0  0  0  0  0  0  0  0  0  0  0  0
  1 12  1  0  0  0  0
  2  3  2  0  0  0  0
  2  4  2  0  0  0  0
  2  6  1  0  0  0  0
  2  7  1  0  0  0  0
  5  8  1  0  0  0  0
  5  9  1  0  0  0  0
  5 15  1  0  0  0  0
  6  9  2  0  0  0  0
  7  8  2  0  0  0  0
  7 10  1  0  0  0  0
  8 11  1  0  0  0  0
  9 14  1  0  0  0  0
 10 12  2  0  0  0  0
 11 13  2  0  0  0  0
 12 13  1  0  0  0  0
M  END
$$$$
C1C[C@@H]2[C@H](C1)CNC2
 OpenBabel07182308452D

 10 11  0  0  0  0  0  0  0  0999 V2000
   -1.6007   -0.3155    0.0000 N   0  0  0  0  0  0  0  0  0  0  0  0
   -1.9070    0.4500    0.0000 C   0  0  0  0  0  0  0  0  0  0  0  0
   -2.7330    0.3991    0.0000 C   0  0  2  0  0  0  0  0  0  0  0  0
   -3.4383    0.8351    0.0000 C   0  0  0  0  0  0  0  0  0  0  0  0
   -4.0741    0.3201    0.0000 C   0  0  0  0  0  0  0  0  0  0  0  0
   -3.7910   -0.3991    0.0000 C   0  0  0  0  0  0  0  0  0  0  0  0
   -2.9418   -0.3991    0.0000 C   0  0  2  0  0  0  0  0  0  0  0  0
   -2.2505   -0.8491    0.0000 C   0  0  0  0  0  0  0  0  0  0  0  0
   -3.1801   -1.2884    0.0000 H   0  0  0  0  0  0  0  0  0  0  0  0
   -2.4946    1.2884    0.0000 H   0  0  0  0  0  0  0  0  0  0  0  0
  2  1  1  0  0  0  0
  3  2  1  0  0  0  0
  3  4  1  0  0  0  0
  3  7  1  6  0  0  0
  3 10  1  0  0  0  0
  5  4  1  0  0  0  0
  5  6  1  0  0  0  0
  7  6  1  0  0  0  0
  7  8  1  0  0  0  0
  7  9  1  6  0  0  0
  8  1  1  0  0  0  0
M  END
$$$$
Nc1ccc2c(c1)nc1c(c2)ccc(c1)N
 OpenBabel07182308452D

 20 22  0  0  0  0  0  0  0  0999 V2000
    4.8066    0.5507    0.0000 N   0  0  0  0  0  0  0  0  0  0  0  0
    7.6027    0.5698    0.0000 N   0  0  0  0  0  0  0  0  0  0  0  0
    2.0104    0.5698    0.0000 N   0  0  0  0  0  0  0  0  0  0  0  0
    5.4925   -0.6374    0.0000 C   0  0  0  0  0  0  0  0  0  0  0  0
    4.1206   -0.6374    0.0000 C   0  0  0  0  0  0  0  0  0  0  0  0
    5.4925    0.1547    0.0000 C   0  0  0  0  0  0  0  0  0  0  0  0
    4.1206    0.1547    0.0000 C   0  0  0  0  0  0  0  0  0  0  0  0
    4.8066   -1.0334    0.0000 C   0  0  0  0  0  0  0  0  0  0  0  0
    6.2005   -1.0609    0.0000 C   0  0  0  0  0  0  0  0  0  0  0  0
    3.4125   -1.0609    0.0000 C   0  0  0  0  0  0  0  0  0  0  0  0
    6.2005    0.5781    0.0000 C   0  0  0  0  0  0  0  0  0  0  0  0
    3.4125    0.5781    0.0000 C   0  0  0  0  0  0  0  0  0  0  0  0
    6.9183    0.1712    0.0000 C   0  0  0  0  0  0  0  0  0  0  0  0
    2.6948    0.1712    0.0000 C   0  0  0  0  0  0  0  0  0  0  0  0
    6.9183   -0.6539    0.0000 C   0  0  0  0  0  0  0  0  0  0  0  0
    2.6948   -0.6539    0.0000 C   0  0  0  0  0  0  0  0  0  0  0  0
    8.4572    0.0808    0.0000 H   0  0  0  0  0  0  0  0  0  0  0  0
    7.5990    1.5543    0.0000 H   0  0  0  0  0  0  0  0  0  0  0  0
    2.0141    1.5543    0.0000 H   0  0  0  0  0  0  0  0  0  0  0  0
    1.1559    0.0808    0.0000 H   0  0  0  0  0  0  0  0  0  0  0  0
  1  6  2  0  0  0  0
  1  7  1  0  0  0  0
  2 13  1  0  0  0  0
  2 17  1  0  0  0  0
  2 18  1  0  0  0  0
  3 14  1  0  0  0  0
  3 19  1  0  0  0  0
  3 20  1  0  0  0  0
  4  6  1  0  0  0  0
  4  8  2  0  0  0  0
  4  9  1  0  0  0  0
  5  7  2  0  0  0  0
  5  8  1  0  0  0  0
  5 10  1  0  0  0  0
  6 11  1  0  0  0  0
  7 12  1  0  0  0  0
  9 15  2  0  0  0  0
 10 16  2  0  0  0  0
 11 13  2  0  0  0  0
 12 14  2  0  0  0  0
 13 15  1  0  0  0  0
 14 16  1  0  0  0  0
M  END
$$$$
O=C1C=C[C@]2([C@H](N1)CC[C@@H]1[C@@H]2CC[C@]2([C@H]1CCC2)C)C
 OpenBabel07182308452D

 26 29  0  0  1  0  0  0  0  0999 V2000
    5.5645   -5.6364    0.0000 C   0  0  0  0  0  0  0  0  0  0  0  0
    5.5645   -6.4614    0.0000 C   0  0  0  0  0  0  0  0  0  0  0  0
    6.2766   -6.8698    0.0000 N   0  0  0  0  0  0  0  0  0  0  0  0
    6.2766   -5.2198    0.0000 C   0  0  0  0  0  0  0  0  0  0  0  0
    6.9886   -5.6364    0.0000 C   0  0  1  0  0  0  0  0  0  0  0  0
    6.9851   -6.4614    0.0000 C   0  0  1  0  0  0  0  0  0  0  0  0
    7.6938   -6.8747    0.0000 C   0  0  0  0  0  0  0  0  0  0  0  0
    8.4106   -6.4675    0.0000 C   0  0  0  0  0  0  0  0  0  0  0  0
    7.7008   -5.2247    0.0000 C   0  0  2  0  0  0  0  0  0  0  0  0
    8.4142   -5.6473    0.0000 C   0  0  2  0  0  0  0  0  0  0  0  0
    8.4312   -3.9920    0.0000 C   0  0  0  0  0  0  0  0  0  0  0  0
    4.8507   -6.8750    0.0000 O   0  0  0  0  0  0  0  0  0  0  0  0
    6.9770   -7.2823    0.0000 H   0  0  0  0  0  0  0  0  0  0  0  0
    9.1229   -6.0698    0.0000 H   0  0  0  0  0  0  0  0  0  0  0  0
    7.6586   -4.4783    0.0000 C   0  0  0  0  0  0  0  0  0  0  0  0
    8.4062   -4.8198    0.0000 H   0  0  0  0  0  0  0  0  0  0  0  0
    9.1481   -4.4139    0.0000 C   0  0  1  0  0  0  0  0  0  0  0  0
    9.1310   -5.2449    0.0000 C   0  0  1  0  0  0  0  0  0  0  0  0
    9.9161   -5.5180    0.0000 C   0  0  0  0  0  0  0  0  0  0  0  0
   10.4184   -4.8557    0.0000 C   0  0  0  0  0  0  0  0  0  0  0  0
    9.9437   -4.1734    0.0000 C   0  0  0  0  0  0  0  0  0  0  0  0
    9.1437   -3.6362    0.0000 C   0  0  0  0  0  0  0  0  0  0  0  0
    6.9812   -4.8073    0.0000 C   0  0  0  0  0  0  0  0  0  0  0  0
    7.6937   -6.0490    0.0000 H   0  0  0  0  0  0  0  0  0  0  0  0
   10.7349   -4.3934    0.0000 H   0  0  0  0  0  0  0  0  0  0  0  0
    6.2777   -7.8543    0.0000 H   0  0  0  0  0  0  0  0  0  0  0  0
  1  2  1  0  0  0  0
  1  4  2  0  0  0  0
  2  3  1  0  0  0  0
  2 12  2  0  0  0  0
  3  6  1  0  0  0  0
  3 26  1  0  0  0  0
  5  4  1  0  0  0  0
  5  6  1  1  0  0  0
  5 23  1  0  0  0  0
  6 13  1  6  0  0  0
  6  7  1  0  0  0  0
  7  8  1  0  0  0  0
  8 10  1  0  0  0  0
  9 15  1  0  0  0  0
  9  5  1  1  0  0  0
  9 24  1  0  0  0  0
 10  9  1  6  0  0  0
 10 16  1  0  0  0  0
 11 15  1  0  0  0  0
 17 22  1  0  0  0  0
 17 11  1  0  0  0  0
 17 18  1  1  0  0  0
 18 10  1  1  0  0  0
 18 19  1  0  0  0  0
 18 14  1  0  0  0  0
 19 20  1  0  0  0  0
 20 21  1  0  0  0  0
 21 17  1  0  0  0  0
 21 25  1  0  0  0  0
M  END
$$$$
C[NH+]1CCc2c(C1)cccc2
 OpenBabel07182308452D

 11 12  0  0  0  0  0  0  0  0999 V2000
   -3.5597    0.2704    0.0000 C   0  0  0  0  0  0  0  0  0  0  0  0
   -3.4286    2.0911    0.0000 C   0  0  0  0  0  0  0  0  0  0  0  0
   -3.4286    1.2662    0.0000 C   0  0  0  0  0  0  0  0  0  0  0  0
   -4.1431    3.3286    0.0000 C   0  0  0  0  0  0  0  0  0  0  0  0
   -4.1431    2.5037    0.0000 C   0  0  0  0  0  0  0  0  0  0  0  0
   -4.8575    1.2662    0.0000 C   0  0  0  0  0  0  0  0  0  0  0  0
   -4.8575    3.7411    0.0000 C   0  0  0  0  0  0  0  0  0  0  0  0
   -4.8575    2.0911    0.0000 C   0  0  0  0  0  0  0  0  0  0  0  0
   -5.5719    3.3286    0.0000 C   0  0  0  0  0  0  0  0  0  0  0  0
   -5.5719    2.5037    0.0000 C   0  0  0  0  0  0  0  0  0  0  0  0
   -4.1431    0.8537    0.0000 N   0  3  3  0  0  0  0  0  0  0  0  0
  1 11  1  0  0  0  0
  2  3  1  0  0  0  0
  2  5  1  0  0  0  0
  3 11  1  0  0  0  0
  4  5  2  0  0  0  0
  4  7  1  0  0  0  0
  5  8  1  0  0  0  0
  6  8  1  0  0  0  0
  6 11  1  0  0  0  0
  7  9  2  0  0  0  0
  8 10  2  0  0  0  0
  9 10  1  0  0  0  0
M  CHG  1  11   1
M  END
$$$$
Oc1cccc2c1c1ccccc1[nH]2
 OpenBabel07182308452D

 15 17  0  0  0  0  0  0  0  0999 V2000
   -2.0023    0.2062    0.0000 C   0  0  0  0  0  0  0  0  0  0  0  0
   -2.7168   -0.2062    0.0000 C   0  0  0  0  0  0  0  0  0  0  0  0
   -2.7168   -1.0312    0.0000 C   0  0  0  0  0  0  0  0  0  0  0  0
   -2.0023   -1.4437    0.0000 C   0  0  0  0  0  0  0  0  0  0  0  0
   -1.2878   -1.0312    0.0000 C   0  0  0  0  0  0  0  0  0  0  0  0
   -1.2878   -0.2062    0.0000 C   0  0  0  0  0  0  0  0  0  0  0  0
   -3.5014    0.0486    0.0000 C   0  0  0  0  0  0  0  0  0  0  0  0
   -3.9863   -0.6187    0.0000 C   0  0  0  0  0  0  0  0  0  0  0  0
   -3.5014   -1.2861    0.0000 N   0  0  0  0  0  0  0  0  0  0  0  0
   -4.6574    0.8885    0.0000 C   0  0  0  0  0  0  0  0  0  0  0  0
   -5.1424    0.2211    0.0000 C   0  0  0  0  0  0  0  0  0  0  0  0
   -4.8068   -0.5325    0.0000 C   0  0  0  0  0  0  0  0  0  0  0  0
   -3.8370    0.8023    0.0000 C   0  0  0  0  0  0  0  0  0  0  0  0
   -2.0023    1.0312    0.0000 O   0  0  0  0  0  0  0  0  0  0  0  0
   -3.8056   -2.2224    0.0000 H   0  0  0  0  0  0  0  0  0  0  0  0
  1  2  1  0  0  0  0
  1  6  2  0  0  0  0
  1 14  1  0  0  0  0
  2  3  2  0  0  0  0
  3  4  1  0  0  0  0
  4  5  2  0  0  0  0
  5  6  1  0  0  0  0
  7  2  1  0  0  0  0
  7 13  2  0  0  0  0
  8  9  1  0  0  0  0
  8  7  1  0  0  0  0
  9  3  1  0  0  0  0
  9 15  1  0  0  0  0
 10 11  2  0  0  0  0
 10 13  1  0  0  0  0
 11 12  1  0  0  0  0
 12  8  2  0  0  0  0
M  END
$$$$
Fc1cc2OC[C@@H](n3c2c(c1)c(=O)cc3)C
 OpenBabel07182308452D

 16 18  0  0  1  0  0  0  0  0999 V2000
    5.2224    2.1733    0.0000 F   0  0  0  0  0  0  0  0  0  0  0  0
    3.7572   -0.3074    0.0000 O   0  0  0  0  0  0  0  0  0  0  0  0
    7.3574    0.1203    0.0000 O   0  0  0  0  0  0  0  0  0  0  0  0
    5.2357   -1.1610    0.0000 N   0  0  0  0  0  0  0  0  0  0  0  0
    4.4948   -1.5965    0.0000 C   0  0  2  0  0  0  0  0  0  0  0  0
    4.5080    0.9357    0.0000 C   0  0  0  0  0  0  0  0  0  0  0  0
    5.2224   -0.3018    0.0000 C   0  0  0  0  0  0  0  0  0  0  0  0
    4.5080    0.1107    0.0000 C   0  0  0  0  0  0  0  0  0  0  0  0
    3.7506   -1.1667    0.0000 C   0  0  0  0  0  0  0  0  0  0  0  0
    5.9370    0.1107    0.0000 C   0  0  0  0  0  0  0  0  0  0  0  0
    5.2224    1.3482    0.0000 C   0  0  0  0  0  0  0  0  0  0  0  0
    5.9594   -1.5429    0.0000 C   0  0  0  0  0  0  0  0  0  0  0  0
    5.9370    0.9357    0.0000 C   0  0  0  0  0  0  0  0  0  0  0  0
    4.4980   -2.4214    0.0000 C   0  0  0  0  0  0  0  0  0  0  0  0
    6.6460   -0.2975    0.0000 C   0  0  0  0  0  0  0  0  0  0  0  0
    6.6571   -1.1156    0.0000 C   0  0  0  0  0  0  0  0  0  0  0  0
  1 11  1  0  0  0  0
  2  8  1  0  0  0  0
  2  9  1  0  0  0  0
  3 15  2  0  0  0  0
  4  5  1  0  0  0  0
  4  7  1  0  0  0  0
  4 12  1  0  0  0  0
  5  9  1  0  0  0  0
  5 14  1  1  0  0  0
  6  8  1  0  0  0  0
  6 11  2  0  0  0  0
  7  8  2  0  0  0  0
  7 10  1  0  0  0  0
 10 13  2  0  0  0  0
 10 15  1  0  0  0  0
 11 13  1  0  0  0  0
 12 16  2  0  0  0  0
 15 16  1  0  0  0  0
M  END
$$$$
Sc1ccncc1
 OpenBabel07182308452D

  7  7  0  0  0  0  0  0  0  0999 V2000
   -2.9178    0.4449    0.0000 S   0  0  0  0  0  0  0  0  0  0  0  0
   -3.6268    0.8665    0.0000 C   0  0  0  0  0  0  0  0  0  0  0  0
   -3.6125    1.6914    0.0000 C   0  0  0  0  0  0  0  0  0  0  0  0
   -4.3205    2.1129    0.0000 C   0  0  0  0  0  0  0  0  0  0  0  0
   -5.0412    1.7097    0.0000 N   0  0  0  0  0  0  0  0  0  0  0  0
   -5.0494    0.8804    0.0000 C   0  0  0  0  0  0  0  0  0  0  0  0
   -4.3403    0.4626    0.0000 C   0  0  0  0  0  0  0  0  0  0  0  0
  1  2  1  0  0  0  0
  2  3  2  0  0  0  0
  3  4  1  0  0  0  0
  4  5  2  0  0  0  0
  5  6  1  0  0  0  0
  6  7  2  0  0  0  0
  7  2  1  0  0  0  0
M  END
$$$$
O=C1NCC(=O)N2C[C@@H]([C@@H]([C@H]2C(=O)N[C@H](O)[C@H](O)CCC(=O)NCC(=O)N2[C@H](C(=O)NC1)C[C@H](C2)O)O)C
 OpenBabel07182308452D

 46 48  0  0  0  0  0  0  0  0999 V2000
    0.8659   -1.4342    0.0000 N   0  0  0  0  0  0  0  0  0  0  0  0
    4.0760   -4.0167    0.0000 N   0  0  0  0  0  0  0  0  0  0  0  0
    1.2357   -0.6982    0.0000 C   0  0  2  0  0  0  0  0  0  0  0  0
    1.2388   -2.1659    0.0000 C   0  0  0  0  0  0  0  0  0  0  0  0
    4.0806   -3.1867    0.0000 C   0  0  0  0  0  0  0  0  0  0  0  0
    1.1049   -5.0253    0.0000 C   0  0  0  0  0  0  0  0  0  0  0  0
    0.7917   -2.8564    0.0000 C   0  0  0  0  0  0  0  0  0  0  0  0
    1.9520   -0.2891    0.0000 C   0  0  0  0  0  0  0  0  0  0  0  0
    4.7961   -2.7818    0.0000 C   0  0  0  0  0  0  0  0  0  0  0  0
    1.1716   -3.5976    0.0000 N   0  0  0  0  0  0  0  0  0  0  0  0
    2.0099   -4.7885    0.0000 N   0  0  0  0  0  0  0  0  0  0  0  0
    4.8008   -1.9520    0.0000 N   0  0  0  0  0  0  0  0  0  0  0  0
    0.7245   -4.2882    0.0000 C   0  0  0  0  0  0  0  0  0  0  0  0
    2.6645   -0.7017    0.0000 N   0  0  0  0  0  0  0  0  0  0  0  0
    2.6254   -4.2375    0.0000 C   0  0  0  0  0  0  0  0  0  0  0  0
    3.4080   -4.4964    0.0000 C   0  0  2  0  0  0  0  0  0  0  0  0
    5.5211   -1.5435    0.0000 C   0  0  0  0  0  0  0  0  0  0  0  0
    0.0410   -1.3965    0.0000 C   0  0  0  0  0  0  0  0  0  0  0  0
    0.6504   -0.1152    0.0000 C   0  0  2  0  0  0  0  0  0  0  0  0
    5.5204   -0.7213    0.0000 C   0  0  0  0  0  0  0  0  0  0  0  0
    3.3848   -0.2933    0.0000 C   0  0  1  0  0  0  0  0  0  0  0  0
   -0.0868   -0.4958    0.0000 C   0  0  1  0  0  0  0  0  0  0  0  0
    4.8124   -0.3051    0.0000 C   0  0  0  0  0  0  0  0  0  0  0  0
    4.7389   -4.5061    0.0000 C   0  0  0  0  0  0  0  0  0  0  0  0
    3.6590   -5.2811    0.0000 C   0  0  0  0  0  0  0  0  0  0  0  0
    4.0922   -0.7135    0.0000 C   0  0  1  0  0  0  0  0  0  0  0  0
    3.3686   -2.7700    0.0000 O   0  0  0  0  0  0  0  0  0  0  0  0
    2.0679   -2.2043    0.0000 O   0  0  0  0  0  0  0  0  0  0  0  0
    1.9559    0.5368    0.0000 O   0  0  0  0  0  0  0  0  0  0  0  0
   -0.0963   -4.2511    0.0000 O   0  0  0  0  0  0  0  0  0  0  0  0
    2.4585   -3.4277    0.0000 O   0  0  0  0  0  0  0  0  0  0  0  0
    6.2283   -1.9637    0.0000 O   0  0  0  0  0  0  0  0  0  0  0  0
    4.4800   -5.2887    0.0000 C   0  0  1  0  0  0  0  0  0  0  0  0
    0.7752    0.7005    0.0000 O   0  0  0  0  0  0  0  0  0  0  0  0
    3.3842    0.5291    0.0000 O   0  0  0  0  0  0  0  0  0  0  0  0
    4.0882   -1.5393    0.0000 O   0  0  0  0  0  0  0  0  0  0  0  0
    4.9590   -5.9607    0.0000 O   0  0  0  0  0  0  0  0  0  0  0  0
   -0.8175   -0.1184    0.0000 C   0  0  0  0  0  0  0  0  0  0  0  0
    2.1548   -3.6473    0.0000 H   0  0  0  0  0  0  0  0  0  0  0  0
    2.4759   -5.6557    0.0000 H   0  0  0  0  0  0  0  0  0  0  0  0
    3.9515   -1.4541    0.0000 H   0  0  0  0  0  0  0  0  0  0  0  0
    2.6600   -1.6862    0.0000 H   0  0  0  0  0  0  0  0  0  0  0  0
    1.6789    1.0529    0.0000 H   0  0  0  0  0  0  0  0  0  0  0  0
    4.2239    1.0147    0.0000 H   0  0  0  0  0  0  0  0  0  0  0  0
    3.2458   -2.0202    0.0000 H   0  0  0  0  0  0  0  0  0  0  0  0
    4.5565   -6.8432    0.0000 H   0  0  0  0  0  0  0  0  0  0  0  0
  2 16  1  0  0  0  0
  3  1  1  0  0  0  0
  3  8  1  1  0  0  0
  4  1  1  0  0  0  0
  5  2  1  0  0  0  0
  6 13  1  0  0  0  0
  7  4  1  0  0  0  0
  9 12  1  0  0  0  0
  9  5  1  0  0  0  0
 10  7  1  0  0  0  0
 10 39  1  0  0  0  0
 11  6  1  0  0  0  0
 11 40  1  0  0  0  0
 12 17  1  0  0  0  0
 12 41  1  0  0  0  0
 13 10  1  0  0  0  0
 14  8  1  0  0  0  0
 14 42  1  0  0  0  0
 15 11  1  0  0  0  0
 16 15  1  0  0  0  0
 16 25  1  1  0  0  0
 17 20  1  0  0  0  0
 18  1  1  0  0  0  0
 19  3  1  0  0  0  0
 19 34  1  6  0  0  0
 19 22  1  0  0  0  0
 20 23  1  0  0  0  0
 21 14  1  0  0  0  0
 21 35  1  6  0  0  0
 22 18  1  0  0  0  0
 22 38  1  6  0  0  0
 23 26  1  0  0  0  0
 24  2  1  0  0  0  0
 26 21  1  0  0  0  0
 26 36  1  1  0  0  0
 27  5  2  0  0  0  0
 28  4  2  0  0  0  0
 29  8  2  0  0  0  0
 30 13  2  0  0  0  0
 31 15  2  0  0  0  0
 32 17  2  0  0  0  0
 33 25  1  0  0  0  0
 33 37  1  6  0  0  0
 33 24  1  0  0  0  0
 34 43  1  0  0  0  0
 35 44  1  0  0  0  0
 36 45  1  0  0  0  0
 37 46  1  0  0  0  0
M  END
$$$$
c1ccno1
 OpenBabel07182308452D

  5  5  0  0  0  0  0  0  0  0999 V2000
    9.9037    1.7199    0.0000 N   0  0  0  0  0  0  0  0  0  0  0  0
   10.5689    0.5556    0.0000 C   0  0  0  0  0  0  0  0  0  0  0  0
   11.1219    1.1666    0.0000 C   0  0  0  0  0  0  0  0  0  0  0  0
    9.8160    0.8984    0.0000 C   0  0  0  0  0  0  0  0  0  0  0  0
   10.7135    1.8869    0.0000 O   0  0  0  0  0  0  0  0  0  0  0  0
  1  4  2  0  0  0  0
  2  4  1  0  0  0  0
  3  2  2  0  0  0  0
  3  5  1  0  0  0  0
  5  1  1  0  0  0  0
M  END
$$$$
C/C=C/1\c2ccccc2OCc2c1cccc2
 OpenBabel07182308452D

 18 20  0  0  0  0  0  0  0  0999 V2000
    0.0000    0.7463    0.0000 C   0  0  0  0  0  0  0  0  0  0  0  0
   -0.7433    1.1043    0.0000 C   0  0  0  0  0  0  0  0  0  0  0  0
    0.7433    1.1043    0.0000 C   0  0  0  0  0  0  0  0  0  0  0  0
   -0.9268    1.9086    0.0000 C   0  0  0  0  0  0  0  0  0  0  0  0
   -1.3480    0.5431    0.0000 C   0  0  0  0  0  0  0  0  0  0  0  0
    0.9269    1.9086    0.0000 C   0  0  0  0  0  0  0  0  0  0  0  0
    1.3481    0.5431    0.0000 C   0  0  0  0  0  0  0  0  0  0  0  0
    0.7145   -0.4911    0.0000 C   0  0  0  0  0  0  0  0  0  0  0  0
   -0.4125    2.5536    0.0000 C   0  0  0  0  0  0  0  0  0  0  0  0
   -1.7152    2.1518    0.0000 C   0  0  0  0  0  0  0  0  0  0  0  0
   -2.1364    0.7863    0.0000 C   0  0  0  0  0  0  0  0  0  0  0  0
    0.4125    2.5536    0.0000 O   0  0  0  0  0  0  0  0  0  0  0  0
    1.7153    2.1518    0.0000 C   0  0  0  0  0  0  0  0  0  0  0  0
    2.1364    0.7863    0.0000 C   0  0  0  0  0  0  0  0  0  0  0  0
   -2.3200    1.5906    0.0000 C   0  0  0  0  0  0  0  0  0  0  0  0
    2.3200    1.5906    0.0000 C   0  0  0  0  0  0  0  0  0  0  0  0
    0.0000   -0.0786    0.0000 C   0  0  0  0  0  0  0  0  0  0  0  0
   -0.7145   -0.4911    0.0000 H   0  0  0  0  0  0  0  0  0  0  0  0
  1  2  1  0  0  0  0
  1  3  1  0  0  0  0
  1 17  2  0  0  0  0
  2  4  1  0  0  0  0
  2  5  2  0  0  0  0
  3  6  1  0  0  0  0
  3  7  2  0  0  0  0
  4  9  1  0  0  0  0
  4 10  2  0  0  0  0
  5 11  1  0  0  0  0
  6 12  1  0  0  0  0
  6 13  2  0  0  0  0
  7 14  1  0  0  0  0
  9 12  1  0  0  0  0
 10 15  1  0  0  0  0
 11 15  2  0  0  0  0
 13 16  1  0  0  0  0
 14 16  2  0  0  0  0
 17  8  1  0  0  0  0
 17 18  1  0  0  0  0
M  END
$$$$
CS(=O)O
 OpenBabel07182308452D

  5  4  0  0  1  0  0  0  0  0999 V2000
    2.3644   -4.5375    0.0000 S   0  0  3  0  0  0  0  0  0  0  0  0
    1.6500   -4.9500    0.0000 O   0  0  0  0  0  0  0  0  0  0  0  0
    3.0790   -4.9500    0.0000 O   0  0  0  0  0  0  0  0  0  0  0  0
    2.3644   -3.7125    0.0000 C   0  0  0  0  0  0  0  0  0  0  0  0
    0.8099   -4.4650    0.0000 H   0  0  0  0  0  0  0  0  0  0  0  0
  1  2  1  0  0  0  0
  1  3  2  0  0  0  0
  1  4  1  0  0  0  0
  2  5  1  0  0  0  0
M  END
$$$$
O=c1c(C)coc2c1cccc2
 OpenBabel07182308452D

 12 13  0  0  0  0  0  0  0  0999 V2000
    4.5080    1.2599    0.0000 O   0  0  0  0  0  0  0  0  0  0  0  0
    4.5080    3.7349    0.0000 O   0  0  0  0  0  0  0  0  0  0  0  0
    5.9600    1.2313    0.0000 C   0  0  0  0  0  0  0  0  0  0  0  0
    5.2224    1.6724    0.0000 C   0  0  0  0  0  0  0  0  0  0  0  0
    5.2224    2.4974    0.0000 C   0  0  0  0  0  0  0  0  0  0  0  0
    3.7935    2.4974    0.0000 C   0  0  0  0  0  0  0  0  0  0  0  0
    3.7935    1.6724    0.0000 C   0  0  0  0  0  0  0  0  0  0  0  0
    4.5080    2.9099    0.0000 C   0  0  0  0  0  0  0  0  0  0  0  0
    6.7075    1.6552    0.0000 C   0  0  0  0  0  0  0  0  0  0  0  0
    5.9600    2.9385    0.0000 C   0  0  0  0  0  0  0  0  0  0  0  0
    6.7075    2.5147    0.0000 C   0  0  0  0  0  0  0  0  0  0  0  0
    3.0791    2.9099    0.0000 C   0  0  0  0  0  0  0  0  0  0  0  0
  1  4  1  0  0  0  0
  1  7  1  0  0  0  0
  2  8  2  0  0  0  0
  3  4  1  0  0  0  0
  3  9  2  0  0  0  0
  4  5  2  0  0  0  0
  5  8  1  0  0  0  0
  5 10  1  0  0  0  0
  6  7  2  0  0  0  0
  6  8  1  0  0  0  0
  6 12  1  0  0  0  0
  9 11  1  0  0  0  0
 10 11  2  0  0  0  0
M  END
$$$$
O=c1n(C)cnn1C
 OpenBabel07182308452D

  8  8  0  0  0  0  0  0  0  0999 V2000
    3.9811    2.9167    0.0000 O   0  0  0  0  0  0  0  0  0  0  0  0
    4.5080    1.5442    0.0000 N   0  0  0  0  0  0  0  0  0  0  0  0
    5.4012    2.5362    0.0000 N   0  0  0  0  0  0  0  0  0  0  0  0
    5.2616    1.2086    0.0000 N   0  0  0  0  0  0  0  0  0  0  0  0
    3.7935    1.1317    0.0000 C   0  0  0  0  0  0  0  0  0  0  0  0
    4.5942    2.3647    0.0000 C   0  0  0  0  0  0  0  0  0  0  0  0
    5.8137    1.8217    0.0000 C   0  0  0  0  0  0  0  0  0  0  0  0
    5.7368    3.2899    0.0000 C   0  0  0  0  0  0  0  0  0  0  0  0
  1  6  2  0  0  0  0
  2  4  1  0  0  0  0
  2  5  1  0  0  0  0
  2  6  1  0  0  0  0
  3  6  1  0  0  0  0
  3  7  1  0  0  0  0
  3  8  1  0  0  0  0
  4  7  2  0  0  0  0
M  END
$$$$
O[C@@H]1[C@@H](C)OC([C@H]([C@H]1N)O)O
 OpenBabel07182308452D

 15 15  0  0  0  0  0  0  0  0999 V2000
   -6.1673   -0.2818    0.0000 C   0  0  3  0  0  0  0  0  0  0  0  0
   -6.5802   -0.9959    0.0000 C   0  0  2  0  0  0  0  0  0  0  0  0
   -7.4013   -0.9959    0.0000 C   0  0  2  0  0  0  0  0  0  0  0  0
   -6.5802    0.4322    0.0000 O   0  0  0  0  0  0  0  0  0  0  0  0
   -7.8190   -0.2818    0.0000 C   0  0  1  0  0  0  0  0  0  0  0  0
   -7.4013    0.4322    0.0000 C   0  0  1  0  0  0  0  0  0  0  0  0
   -5.3414   -0.2818    0.0000 O   0  0  0  0  0  0  0  0  0  0  0  0
   -7.8142   -1.7101    0.0000 N   0  0  0  0  0  0  0  0  0  0  0  0
   -6.1624   -1.7101    0.0000 O   0  0  0  0  0  0  0  0  0  0  0  0
   -8.6450   -0.2818    0.0000 O   0  0  0  0  0  0  0  0  0  0  0  0
   -7.8142    1.1514    0.0000 C   0  0  0  0  0  0  0  0  0  0  0  0
   -8.8342   -1.7095    0.0000 H   0  0  0  0  0  0  0  0  0  0  0  0
   -7.3047   -2.5937    0.0000 H   0  0  0  0  0  0  0  0  0  0  0  0
   -6.6426   -2.5529    0.0000 H   0  0  0  0  0  0  0  0  0  0  0  0
   -9.1300    0.5582    0.0000 H   0  0  0  0  0  0  0  0  0  0  0  0
  1  7  1  0  0  0  0
  2  1  1  0  0  0  0
  2  9  1  1  0  0  0
  3  2  1  0  0  0  0
  3  8  1  1  0  0  0
  4  1  1  0  0  0  0
  5  6  1  0  0  0  0
  5 10  1  6  0  0  0
  5  3  1  0  0  0  0
  6  4  1  0  0  0  0
  6 11  1  1  0  0  0
  8 12  1  0  0  0  0
  8 13  1  0  0  0  0
  9 14  1  0  0  0  0
 10 15  1  0  0  0  0
M  END
$$$$
OC1CC(O)CC(=O)CCCC(=O)CC(=O)OCC(C)/C=C/C=C/C=C/C=C/C=C/C=C/C=C/CCC(CC(CC(=O)CC(C1)O)O)O
 OpenBabel07182308452D

 53 53  0  0  0  0  0  0  0  0999 V2000
   -4.1998    2.4922    0.0000 C   0  0  0  0  0  0  0  0  0  0  0  0
   -3.4808    2.9002    0.0000 C   0  0  3  0  0  0  0  0  0  0  0  0
   -4.2046    1.6663    0.0000 C   0  0  3  0  0  0  0  0  0  0  0  0
    6.5026    1.2145    0.0000 O   0  0  0  0  0  0  0  0  0  0  0  0
    7.2216    1.6274    0.0000 C   0  0  0  0  0  0  0  0  0  0  0  0
    6.5026    0.3886    0.0000 C   0  0  0  0  0  0  0  0  0  0  0  0
   -2.7716    2.4825    0.0000 C   0  0  0  0  0  0  0  0  0  0  0  0
    7.2216    2.4533    0.0000 C   0  0  0  0  0  0  0  0  0  0  0  0
   -4.9236    1.2582    0.0000 C   0  0  0  0  0  0  0  0  0  0  0  0
   -2.0524    2.8905    0.0000 C   0  0  0  0  0  0  0  0  0  0  0  0
   -4.9285    0.4322    0.0000 C   0  0  0  0  0  0  0  0  0  0  0  0
   -1.3383    2.4727    0.0000 C   0  0  0  0  0  0  0  0  0  0  0  0
    6.5075    2.8662    0.0000 C   0  0  0  0  0  0  0  0  0  0  0  0
    7.9357    1.2097    0.0000 O   0  0  0  0  0  0  0  0  0  0  0  0
    2.9513    2.4484    0.0000 C   0  0  0  0  0  0  0  0  0  0  0  0
    5.7884   -0.0194    0.0000 C   0  0  3  0  0  0  0  0  0  0  0  0
    1.5230    2.4581    0.0000 C   0  0  0  0  0  0  0  0  0  0  0  0
    0.0899    2.4679    0.0000 C   0  0  0  0  0  0  0  0  0  0  0  0
    3.6702    2.8565    0.0000 C   0  0  0  0  0  0  0  0  0  0  0  0
   -0.6193    2.8856    0.0000 C   0  0  3  0  0  0  0  0  0  0  0  0
    2.2371    2.8662    0.0000 C   0  0  3  0  0  0  0  0  0  0  0  0
    0.8089    2.8760    0.0000 C   0  0  3  0  0  0  0  0  0  0  0  0
   -2.0475    3.7164    0.0000 O   0  0  0  0  0  0  0  0  0  0  0  0
   -2.0670    0.4177    0.0000 C   0  0  0  0  0  0  0  0  0  0  0  0
   -1.3529    0.0048    0.0000 C   0  0  0  0  0  0  0  0  0  0  0  0
   -0.6388    0.4129    0.0000 C   0  0  0  0  0  0  0  0  0  0  0  0
    0.0753    0.0000    0.0000 C   0  0  0  0  0  0  0  0  0  0  0  0
    0.7894    0.4080    0.0000 C   0  0  0  0  0  0  0  0  0  0  0  0
    1.5035   -0.0048    0.0000 C   0  0  0  0  0  0  0  0  0  0  0  0
    2.2177    0.4032    0.0000 C   0  0  0  0  0  0  0  0  0  0  0  0
    2.9318   -0.0096    0.0000 C   0  0  0  0  0  0  0  0  0  0  0  0
    3.6459    0.3984    0.0000 C   0  0  0  0  0  0  0  0  0  0  0  0
   -2.7812    0.0096    0.0000 C   0  0  0  0  0  0  0  0  0  0  0  0
    4.3602   -0.0145    0.0000 C   0  0  0  0  0  0  0  0  0  0  0  0
   -3.4954    0.4226    0.0000 C   0  0  0  0  0  0  0  0  0  0  0  0
   -4.2144    0.0145    0.0000 C   0  0  0  0  0  0  0  0  0  0  0  0
    5.0743    0.3935    0.0000 C   0  0  0  0  0  0  0  0  0  0  0  0
    6.5075    3.6921    0.0000 O   0  0  0  0  0  0  0  0  0  0  0  0
    3.6751    3.6823    0.0000 O   0  0  0  0  0  0  0  0  0  0  0  0
   -3.4759    3.7261    0.0000 O   0  0  0  0  0  0  0  0  0  0  0  0
   -3.4905    1.2484    0.0000 O   0  0  0  0  0  0  0  0  0  0  0  0
    0.8137    3.7018    0.0000 O   0  0  0  0  0  0  0  0  0  0  0  0
    2.2419    3.6921    0.0000 O   0  0  0  0  0  0  0  0  0  0  0  0
   -0.6145    3.7115    0.0000 O   0  0  0  0  0  0  0  0  0  0  0  0
    5.0986    2.8516    0.0000 C   0  0  0  0  0  0  0  0  0  0  0  0
    5.7933    2.4533    0.0000 C   0  0  0  0  0  0  0  0  0  0  0  0
    4.3844    2.4435    0.0000 C   0  0  0  0  0  0  0  0  0  0  0  0
    5.7835   -0.8453    0.0000 C   0  0  0  0  0  0  0  0  0  0  0  0
   -2.6330    4.2061    0.0000 H   0  0  0  0  0  0  0  0  0  0  0  0
   -3.4962    0.2784    0.0000 H   0  0  0  0  0  0  0  0  0  0  0  0
    1.6565    4.1819    0.0000 H   0  0  0  0  0  0  0  0  0  0  0  0
    3.0847    4.1722    0.0000 H   0  0  0  0  0  0  0  0  0  0  0  0
    0.2283    4.1916    0.0000 H   0  0  0  0  0  0  0  0  0  0  0  0
  1  3  1  0  0  0  0
  2  1  1  0  0  0  0
  3  9  1  0  0  0  0
  4  6  1  0  0  0  0
  5  4  1  0  0  0  0
  6 16  1  0  0  0  0
  7  2  1  0  0  0  0
  8  5  1  0  0  0  0
  9 11  1  0  0  0  0
 10  7  1  0  0  0  0
 12 10  1  0  0  0  0
 13 46  1  0  0  0  0
 13  8  1  0  0  0  0
 14  5  2  0  0  0  0
 15 21  1  0  0  0  0
 16 37  1  0  0  0  0
 17 22  1  0  0  0  0
 18 20  1  0  0  0  0
 19 15  1  0  0  0  0
 20 12  1  0  0  0  0
 21 17  1  0  0  0  0
 22 18  1  0  0  0  0
 23 10  2  0  0  0  0
 24 33  2  0  0  0  0
 25 24  1  0  0  0  0
 26 25  2  0  0  0  0
 27 26  1  0  0  0  0
 28 27  2  0  0  0  0
 29 28  1  0  0  0  0
 30 29  2  0  0  0  0
 31 30  1  0  0  0  0
 32 31  2  0  0  0  0
 33 35  1  0  0  0  0
 34 32  1  0  0  0  0
 35 36  2  0  0  0  0
 36 11  1  0  0  0  0
 37 34  2  0  0  0  0
 38 13  2  0  0  0  0
 39 19  2  0  0  0  0
 40  2  1  0  0  0  0
 40 49  1  0  0  0  0
 41  3  1  0  0  0  0
 41 50  1  0  0  0  0
 42 22  1  0  0  0  0
 42 51  1  0  0  0  0
 43 21  1  0  0  0  0
 43 52  1  0  0  0  0
 44 20  1  0  0  0  0
 44 53  1  0  0  0  0
 45 47  1  0  0  0  0
 46 45  1  0  0  0  0
 47 19  1  0  0  0  0
 48 16  1  0  0  0  0
M  END
$$$$
Clc1cccc2c1scc2
 OpenBabel07182308452D

 10 11  0  0  1  0  0  0  0  0999 V2000
    2.3645   -3.3928    0.0000 Cl  0  0  0  0  0  0  0  0  0  0  0  0
    3.8597   -2.4067    0.0000 S   0  0  0  0  0  0  0  0  0  0  0  0
    3.8597   -1.0789    0.0000 C   0  0  0  0  0  0  0  0  0  0  0  0
    3.0791   -1.3303    0.0000 C   0  0  0  0  0  0  0  0  0  0  0  0
    3.0791   -2.1553    0.0000 C   0  0  0  0  0  0  0  0  0  0  0  0
    4.3412   -1.7428    0.0000 C   0  0  0  0  0  0  0  0  0  0  0  0
    2.3645   -0.9178    0.0000 C   0  0  0  0  0  0  0  0  0  0  0  0
    2.3645   -2.5678    0.0000 C   0  0  0  0  0  0  0  0  0  0  0  0
    1.6500   -1.3303    0.0000 C   0  0  0  0  0  0  0  0  0  0  0  0
    1.6500   -2.1553    0.0000 C   0  0  0  0  0  0  0  0  0  0  0  0
  1  8  1  0  0  0  0
  2  5  1  0  0  0  0
  2  6  1  0  0  0  0
  3  4  1  0  0  0  0
  3  6  2  0  0  0  0
  4  5  2  0  0  0  0
  4  7  1  0  0  0  0
  5  8  1  0  0  0  0
  7  9  2  0  0  0  0
  8 10  2  0  0  0  0
  9 10  1  0  0  0  0
M  END
$$$$
CC1C(=O)NC(=S)NC1=O
 OpenBabel07182308452D

 12 12  0  0  1  0  0  0  0  0999 V2000
    3.3001   -2.6665    0.0000 S   0  0  0  0  0  0  0  0  0  0  0  0
    4.7291   -0.1915    0.0000 O   0  0  0  0  0  0  0  0  0  0  0  0
    1.8711   -0.1915    0.0000 O   0  0  0  0  0  0  0  0  0  0  0  0
    4.0145   -1.4290    0.0000 N   0  0  0  0  0  0  0  0  0  0  0  0
    2.5856   -1.4290    0.0000 N   0  0  0  0  0  0  0  0  0  0  0  0
    3.3001   -0.1915    0.0000 C   0  0  0  0  0  0  0  0  0  0  0  0
    2.8876    0.5231    0.0000 C   0  0  0  0  0  0  0  0  0  0  0  0
    4.0145   -0.6040    0.0000 C   0  0  0  0  0  0  0  0  0  0  0  0
    2.5856   -0.6040    0.0000 C   0  0  0  0  0  0  0  0  0  0  0  0
    3.3001   -1.8415    0.0000 C   0  0  0  0  0  0  0  0  0  0  0  0
    4.8671   -1.9212    0.0000 H   0  0  0  0  0  0  0  0  0  0  0  0
    1.7330   -1.9213    0.0000 H   0  0  0  0  0  0  0  0  0  0  0  0
  1 10  2  0  0  0  0
  2  8  2  0  0  0  0
  3  9  2  0  0  0  0
  4  8  1  0  0  0  0
  4 10  1  0  0  0  0
  4 11  1  0  0  0  0
  5  9  1  0  0  0  0
  5 10  1  0  0  0  0
  5 12  1  0  0  0  0
  6  7  1  0  0  0  0
  6  8  1  0  0  0  0
  6  9  1  0  0  0  0
M  END
$$$$
N=C1CNCC1
 OpenBabel07182308452D

  6  6  0  0  0  0  0  0  0  0999 V2000
   11.2767   -4.8019    0.0000 N   0  0  0  0  0  0  0  0  0  0  0  0
    9.9453   -4.7895    0.0000 C   0  0  0  0  0  0  0  0  0  0  0  0
   10.1949   -5.5758    0.0000 C   0  0  0  0  0  0  0  0  0  0  0  0
   10.6068   -4.3026    0.0000 C   0  0  0  0  0  0  0  0  0  0  0  0
   11.0188   -5.5758    0.0000 C   0  0  0  0  0  0  0  0  0  0  0  0
    9.1671   -4.5273    0.0000 N   0  0  0  0  0  0  0  0  0  0  0  0
  2  4  1  0  0  0  0
  3  5  1  0  0  0  0
  3  2  1  0  0  0  0
  4  1  1  0  0  0  0
  5  1  1  0  0  0  0
  6  2  2  0  0  0  0
M  END
$$$$
Nc1nc2cccc(c2c(n1)N)C
 OpenBabel07182308452D

 17 18  0  0  0  0  0  0  0  0999 V2000
    3.5220    1.8195    0.0000 N   0  0  0  0  0  0  0  0  0  0  0  0
    2.8075    0.5820    0.0000 N   0  0  0  0  0  0  0  0  0  0  0  0
    3.5220   -0.6556    0.0000 N   0  0  0  0  0  0  0  0  0  0  0  0
    2.0930    1.8195    0.0000 N   0  0  0  0  0  0  0  0  0  0  0  0
    5.7214    0.5648    0.0000 C   0  0  0  0  0  0  0  0  0  0  0  0
    4.9740    0.1408    0.0000 C   0  0  0  0  0  0  0  0  0  0  0  0
    4.2364    0.5820    0.0000 C   0  0  0  0  0  0  0  0  0  0  0  0
    4.2364    1.4070    0.0000 C   0  0  0  0  0  0  0  0  0  0  0  0
    5.7214    1.4241    0.0000 C   0  0  0  0  0  0  0  0  0  0  0  0
    4.9740    1.8481    0.0000 C   0  0  0  0  0  0  0  0  0  0  0  0
    4.9644   -0.6841    0.0000 C   0  0  0  0  0  0  0  0  0  0  0  0
    3.5220    0.1695    0.0000 C   0  0  0  0  0  0  0  0  0  0  0  0
    2.8075    1.4070    0.0000 C   0  0  0  0  0  0  0  0  0  0  0  0
    2.6694   -1.1479    0.0000 H   0  0  0  0  0  0  0  0  0  0  0  0
    4.3746   -1.1479    0.0000 H   0  0  0  0  0  0  0  0  0  0  0  0
    2.0930    2.8040    0.0000 H   0  0  0  0  0  0  0  0  0  0  0  0
    1.2404    1.3272    0.0000 H   0  0  0  0  0  0  0  0  0  0  0  0
  1  8  1  0  0  0  0
  1 13  2  0  0  0  0
  2 12  2  0  0  0  0
  2 13  1  0  0  0  0
  3 12  1  0  0  0  0
  3 14  1  0  0  0  0
  3 15  1  0  0  0  0
  4 13  1  0  0  0  0
  4 16  1  0  0  0  0
  4 17  1  0  0  0  0
  5  6  2  0  0  0  0
  5  9  1  0  0  0  0
  6  7  1  0  0  0  0
  6 11  1  0  0  0  0
  7  8  2  0  0  0  0
  7 12  1  0  0  0  0
  8 10  1  0  0  0  0
  9 10  2  0  0  0  0
M  END
$$$$
ClCBr
 OpenBabel07182308452D

  4  3  0  0  0  0  0  0  0  0999 V2000
   -0.8250    0.7145    0.0000 Br  0  0  0  0  0  0  0  0  0  0  0  0
   -0.8250   -0.7145    0.0000 Cl  0  0  0  0  0  0  0  0  0  0  0  0
   -0.4125    0.0000    0.0000 C   0  0  0  0  0  0  0  0  0  0  0  0
   -1.2374    0.0000    0.0000 H   0  0  0  0  0  0  0  0  0  0  0  0
  1  3  1  0  0  0  0
  2  3  1  0  0  0  0
  3  4  1  0  0  0  0
M  END
$$$$
Fc1cc2OCC(n3c2c(c1)c(=O)cc3)C
 OpenBabel07182308452D

 16 18  0  0  1  0  0  0  0  0999 V2000
    5.2224    2.1733    0.0000 F   0  0  0  0  0  0  0  0  0  0  0  0
    3.7572   -0.3074    0.0000 O   0  0  0  0  0  0  0  0  0  0  0  0
    7.3574    0.1203    0.0000 O   0  0  0  0  0  0  0  0  0  0  0  0
    5.2357   -1.1610    0.0000 N   0  0  0  0  0  0  0  0  0  0  0  0
    4.4948   -1.5965    0.0000 C   0  0  3  0  0  0  0  0  0  0  0  0
    4.5080    0.9357    0.0000 C   0  0  0  0  0  0  0  0  0  0  0  0
    5.2224   -0.3018    0.0000 C   0  0  0  0  0  0  0  0  0  0  0  0
    4.5080    0.1107    0.0000 C   0  0  0  0  0  0  0  0  0  0  0  0
    3.7506   -1.1667    0.0000 C   0  0  0  0  0  0  0  0  0  0  0  0
    5.9370    0.1107    0.0000 C   0  0  0  0  0  0  0  0  0  0  0  0
    5.2224    1.3482    0.0000 C   0  0  0  0  0  0  0  0  0  0  0  0
    5.9594   -1.5429    0.0000 C   0  0  0  0  0  0  0  0  0  0  0  0
    5.9370    0.9357    0.0000 C   0  0  0  0  0  0  0  0  0  0  0  0
    4.4980   -2.4214    0.0000 C   0  0  0  0  0  0  0  0  0  0  0  0
    6.6460   -0.2975    0.0000 C   0  0  0  0  0  0  0  0  0  0  0  0
    6.6571   -1.1156    0.0000 C   0  0  0  0  0  0  0  0  0  0  0  0
  1 11  1  0  0  0  0
  2  8  1  0  0  0  0
  2  9  1  0  0  0  0
  3 15  2  0  0  0  0
  4  5  1  0  0  0  0
  4  7  1  0  0  0  0
  4 12  1  0  0  0  0
  5  9  1  0  0  0  0
  5 14  1  0  0  0  0
  6  8  1  0  0  0  0
  6 11  2  0  0  0  0
  7  8  2  0  0  0  0
  7 10  1  0  0  0  0
 10 13  2  0  0  0  0
 10 15  1  0  0  0  0
 11 13  1  0  0  0  0
 12 16  2  0  0  0  0
 15 16  1  0  0  0  0
M  END
$$$$
Cc1nnn[nH]1
 OpenBabel07182308452D

  6  6  0  0  0  0  0  0  0  0999 V2000
   10.3176   -0.1509    0.0000 N   0  0  0  0  0  0  0  0  0  0  0  0
   10.8720   -0.7618    0.0000 N   0  0  0  0  0  0  0  0  0  0  0  0
    9.6546   -1.3094    0.0000 N   0  0  0  0  0  0  0  0  0  0  0  0
   10.4622   -1.4779    0.0000 N   0  0  0  0  0  0  0  0  0  0  0  0
    9.5652   -0.4893    0.0000 C   0  0  0  0  0  0  0  0  0  0  0  0
    8.8492   -0.0796    0.0000 C   0  0  0  0  0  0  0  0  0  0  0  0
  1  2  1  0  0  0  0
  1  5  1  0  0  0  0
  2  4  2  0  0  0  0
  3  4  1  0  0  0  0
  3  5  2  0  0  0  0
  5  6  1  0  0  0  0
M  END
$$$$
C[C@H]1COCO1
 OpenBabel07182308452D

  6  6  0  0  1  0  0  0  0  0999 V2000
    6.2230    0.2876    0.0000 C   0  0  0  0  0  0  0  0  0  0  0  0
    5.5555   -0.1973    0.0000 O   0  0  0  0  0  0  0  0  0  0  0  0
    4.8879    0.2876    0.0000 C   0  0  2  0  0  0  0  0  0  0  0  0
    5.1430    1.0722    0.0000 C   0  0  0  0  0  0  0  0  0  0  0  0
    5.9680    1.0722    0.0000 O   0  0  0  0  0  0  0  0  0  0  0  0
    4.1034    0.0326    0.0000 C   0  0  0  0  0  0  0  0  0  0  0  0
  1  2  1  0  0  0  0
  1  5  1  0  0  0  0
  2  3  1  0  0  0  0
  3  4  1  0  0  0  0
  3  6  1  1  0  0  0
  5  4  1  0  0  0  0
M  END
$$$$
O[As]=O
 OpenBabel07182308452D

  3  2  0  0  0  0  0  0  0  0999 V2000
    0.7146    0.2062    0.0000 As  0  0  0  0  0  0  0  0  0  0  0  0
    0.0000   -0.2062    0.0000 O   0  0  0  0  0  0  0  0  0  0  0  0
    1.4290   -0.2062    0.0000 O   0  0  0  0  0  0  0  0  0  0  0  0
  1  2  1  0  0  0  0
  1  3  2  0  0  0  0
M  END
$$$$
O=[AsH]
 OpenBabel07182308452D

  2  1  0  0  0  0  0  0  0  0999 V2000
   -0.7146    0.2062    0.0000 As  0  0  0  0  0  0  0  0  0  0  0  0
   -1.4290   -0.2062    0.0000 O   0  0  0  0  0  0  0  0  0  0  0  0
  1  2  2  0  0  0  0
M  END
$$$$
CN1CCCCCCC1
 OpenBabel07182308452D

  9  9  0  0  0  0  0  0  0  0999 V2000
    3.1524    1.0049    0.0000 N   0  0  0  0  0  0  0  0  0  0  0  0
    2.3273    1.0049    0.0000 C   0  0  0  0  0  0  0  0  0  0  0  0
    3.7357    1.5882    0.0000 C   0  0  0  0  0  0  0  0  0  0  0  0
    1.7440    1.5882    0.0000 C   0  0  0  0  0  0  0  0  0  0  0  0
    3.7357    2.4132    0.0000 C   0  0  0  0  0  0  0  0  0  0  0  0
    1.7440    2.4132    0.0000 C   0  0  0  0  0  0  0  0  0  0  0  0
    3.1524    2.9966    0.0000 C   0  0  0  0  0  0  0  0  0  0  0  0
    2.3273    2.9966    0.0000 C   0  0  0  0  0  0  0  0  0  0  0  0
    3.4681    0.2426    0.0000 C   0  0  0  0  0  0  0  0  0  0  0  0
  1  2  1  0  0  0  0
  1  3  1  0  0  0  0
  1  9  1  0  0  0  0
  2  4  1  0  0  0  0
  3  5  1  0  0  0  0
  4  6  1  0  0  0  0
  5  7  1  0  0  0  0
  6  8  1  0  0  0  0
  7  8  1  0  0  0  0
M  END
$$$$
N#Cc1ccc2c(c1)CO[C@@H]2C
 OpenBabel07182308452D

 12 13  0  0  0  0  0  0  0  0999 V2000
   -0.7495    0.9524    0.0000 C   0  0  0  0  0  0  0  0  0  0  0  0
    0.5200    1.3649    0.0000 O   0  0  0  0  0  0  0  0  0  0  0  0
   -0.7495    1.7774    0.0000 C   0  0  0  0  0  0  0  0  0  0  0  0
   -1.4640    0.5399    0.0000 C   0  0  0  0  0  0  0  0  0  0  0  0
    0.0350    2.0324    0.0000 C   0  0  0  0  0  0  0  0  0  0  0  0
   -1.4640    2.1899    0.0000 C   0  0  0  0  0  0  0  0  0  0  0  0
   -2.1784    0.9524    0.0000 C   0  0  0  0  0  0  0  0  0  0  0  0
   -2.1784    1.7774    0.0000 C   0  0  0  0  0  0  0  0  0  0  0  0
   -2.8929    2.1899    0.0000 C   0  0  0  0  0  0  0  0  0  0  0  0
   -3.6074    2.6024    0.0000 N   0  0  0  0  0  0  0  0  0  0  0  0
    0.7495    0.2850    0.0000 C   0  0  0  0  0  0  0  0  0  0  0  0
    0.0350    0.6975    0.0000 C   0  0  2  0  0  0  0  0  0  0  0  0
  1  3  2  0  0  0  0
  1  4  1  0  0  0  0
  2  5  1  0  0  0  0
  3  6  1  0  0  0  0
  3  5  1  0  0  0  0
  4  7  2  0  0  0  0
  6  8  2  0  0  0  0
  7  8  1  0  0  0  0
  8  9  1  0  0  0  0
  9 10  3  0  0  0  0
 12  1  1  0  0  0  0
 12  2  1  0  0  0  0
 12 11  1  6  0  0  0
M  END
$$$$
O=C1CCS(=O)(=O)CN1C
 OpenBabel07182308452D

 10 10  0  0  1  0  0  0  0  0999 V2000
    5.2224   -0.6188    0.0000 S   0  0  0  0  0  0  0  0  0  0  0  0
    4.8099   -1.3332    0.0000 O   0  0  0  0  0  0  0  0  0  0  0  0
    5.6350   -1.3332    0.0000 O   0  0  0  0  0  0  0  0  0  0  0  0
    5.2224    1.8563    0.0000 O   0  0  0  0  0  0  0  0  0  0  0  0
    4.5080    0.6188    0.0000 N   0  0  0  0  0  0  0  0  0  0  0  0
    4.5080   -0.2063    0.0000 C   0  0  0  0  0  0  0  0  0  0  0  0
    5.9370   -0.2063    0.0000 C   0  0  0  0  0  0  0  0  0  0  0  0
    5.9370    0.6188    0.0000 C   0  0  0  0  0  0  0  0  0  0  0  0
    5.2224    1.0313    0.0000 C   0  0  0  0  0  0  0  0  0  0  0  0
    3.7935    1.0313    0.0000 C   0  0  0  0  0  0  0  0  0  0  0  0
  1  2  2  0  0  0  0
  1  3  2  0  0  0  0
  1  6  1  0  0  0  0
  1  7  1  0  0  0  0
  4  9  2  0  0  0  0
  5  6  1  0  0  0  0
  5  9  1  0  0  0  0
  5 10  1  0  0  0  0
  7  8  1  0  0  0  0
  8  9  1  0  0  0  0
M  END
$$$$
O=C1OC[C@H]2[C@H]1Cc1cc3OCOc3cc1[C@@H]2O
 OpenBabel07182308452D

 21 24  0  0  1  0  0  0  0  0999 V2000
    4.7435    2.5059    0.0000 O   0  0  0  0  0  0  0  0  0  0  0  0
    2.3263    1.6191    0.0000 O   0  0  0  0  0  0  0  0  0  0  0  0
    5.8850    1.5868    0.0000 O   0  0  0  0  0  0  0  0  0  0  0  0
    2.8478   -2.1607    0.0000 O   0  0  0  0  0  0  0  0  0  0  0  0
    1.6500   -1.4691    0.0000 O   0  0  0  0  0  0  0  0  0  0  0  0
    3.7552    1.6191    0.0000 C   0  0  1  0  0  0  0  0  0  0  0  0
    4.4697    1.2066    0.0000 C   0  0  1  0  0  0  0  0  0  0  0  0
    4.4697    0.3816    0.0000 C   0  0  0  0  0  0  0  0  0  0  0  0
    3.0407    1.2066    0.0000 C   0  0  2  0  0  0  0  0  0  0  0  0
    3.7552   -0.0309    0.0000 C   0  0  0  0  0  0  0  0  0  0  0  0
    3.9278    2.4209    0.0000 C   0  0  0  0  0  0  0  0  0  0  0  0
    3.0407    0.3816    0.0000 C   0  0  0  0  0  0  0  0  0  0  0  0
    5.0777    1.7569    0.0000 C   0  0  0  0  0  0  0  0  0  0  0  0
    3.7684   -0.8901    0.0000 C   0  0  0  0  0  0  0  0  0  0  0  0
    2.2900   -0.0365    0.0000 C   0  0  0  0  0  0  0  0  0  0  0  0
    3.0276   -1.3255    0.0000 C   0  0  0  0  0  0  0  0  0  0  0  0
    2.2834   -0.8959    0.0000 C   0  0  0  0  0  0  0  0  0  0  0  0
    1.9982   -2.2492    0.0000 C   0  0  0  0  0  0  0  0  0  0  0  0
    3.2218    2.0077    0.0000 H   0  0  0  0  0  0  0  0  0  0  0  0
    5.0729    0.9389    0.0000 H   0  0  0  0  0  0  0  0  0  0  0  0
    2.3263    2.5891    0.0000 H   0  0  0  0  0  0  0  0  0  0  0  0
  1 11  1  0  0  0  0
  1 13  1  0  0  0  0
  2 21  1  0  0  0  0
  3 13  2  0  0  0  0
  4 16  1  0  0  0  0
  4 18  1  0  0  0  0
  5 17  1  0  0  0  0
  5 18  1  0  0  0  0
  6  7  1  6  0  0  0
  6 11  1  0  0  0  0
  6 19  1  0  0  0  0
  7  8  1  0  0  0  0
  7 13  1  0  0  0  0
  7 20  1  1  0  0  0
  8 10  1  0  0  0  0
  9  2  1  0  0  0  0
  9  6  1  6  0  0  0
  9 12  1  0  0  0  0
 10 12  1  0  0  0  0
 10 14  2  0  0  0  0
 12 15  2  0  0  0  0
 14 16  1  0  0  0  0
 15 17  1  0  0  0  0
 16 17  2  0  0  0  0
M  END
$$$$
CN1CCCOP1(=O)N
 OpenBabel07182308452D

 10 10  0  0  1  0  0  0  0  0999 V2000
    4.5080    0.6040    0.0000 P   0  0  3  0  0  0  0  0  0  0  0  0
    5.2224    1.0165    0.0000 O   0  0  0  0  0  0  0  0  0  0  0  0
    4.9205   -0.1106    0.0000 O   0  0  0  0  0  0  0  0  0  0  0  0
    3.7935    1.0165    0.0000 N   0  0  0  0  0  0  0  0  0  0  0  0
    4.0955   -0.1106    0.0000 N   0  0  0  0  0  0  0  0  0  0  0  0
    3.7935    1.8415    0.0000 C   0  0  0  0  0  0  0  0  0  0  0  0
    4.5080    2.2540    0.0000 C   0  0  0  0  0  0  0  0  0  0  0  0
    5.2224    1.8415    0.0000 C   0  0  0  0  0  0  0  0  0  0  0  0
    3.0791    0.6040    0.0000 C   0  0  0  0  0  0  0  0  0  0  0  0
    3.0755   -0.1107    0.0000 H   0  0  0  0  0  0  0  0  0  0  0  0
  1  2  1  0  0  0  0
  1  3  2  0  0  0  0
  1  4  1  0  0  0  0
  1  5  1  0  0  0  0
  2  8  1  0  0  0  0
  4  6  1  0  0  0  0
  4  9  1  0  0  0  0
  5 10  1  0  0  0  0
  6  7  1  0  0  0  0
  7  8  1  0  0  0  0
M  END
$$$$
Clc1ccc2c(c1)[nH]c(=O)[nH]2
 OpenBabel07182308452D

 12 13  0  0  0  0  0  0  0  0999 V2000
    1.6500   -3.7973    0.0000 Cl  0  0  0  0  0  0  0  0  0  0  0  0
    5.8806   -2.9723    0.0000 O   0  0  0  0  0  0  0  0  0  0  0  0
    4.5741   -2.3084    0.0000 N   0  0  0  0  0  0  0  0  0  0  0  0
    4.5741   -3.6362    0.0000 N   0  0  0  0  0  0  0  0  0  0  0  0
    3.7935   -2.5598    0.0000 C   0  0  0  0  0  0  0  0  0  0  0  0
    5.0556   -2.9723    0.0000 C   0  0  0  0  0  0  0  0  0  0  0  0
    3.7935   -3.3848    0.0000 C   0  0  0  0  0  0  0  0  0  0  0  0
    3.0791   -2.1473    0.0000 C   0  0  0  0  0  0  0  0  0  0  0  0
    3.0791   -3.7973    0.0000 C   0  0  0  0  0  0  0  0  0  0  0  0
    2.3645   -2.5598    0.0000 C   0  0  0  0  0  0  0  0  0  0  0  0
    2.3645   -3.3848    0.0000 C   0  0  0  0  0  0  0  0  0  0  0  0
    4.8799   -4.5720    0.0000 H   0  0  0  0  0  0  0  0  0  0  0  0
  1 11  1  0  0  0  0
  2  6  2  0  0  0  0
  3  5  1  0  0  0  0
  3  6  1  0  0  0  0
  4  6  1  0  0  0  0
  4  7  1  0  0  0  0
  4 12  1  0  0  0  0
  5  7  2  0  0  0  0
  5  8  1  0  0  0  0
  7  9  1  0  0  0  0
  8 10  2  0  0  0  0
  9 11  2  0  0  0  0
 10 11  1  0  0  0  0
M  END
$$$$
Cn1c(=O)[nH]c2c1cccc2
 OpenBabel07182308452D

 12 13  0  0  0  0  0  0  0  0999 V2000
    7.9892    0.5823    0.0000 O   0  0  0  0  0  0  0  0  0  0  0  0
    7.4702    1.9529    0.0000 N   0  0  0  0  0  0  0  0  0  0  0  0
    8.7903    1.8095    0.0000 N   0  0  0  0  0  0  0  0  0  0  0  0
    6.6629    1.7827    0.0000 C   0  0  0  0  0  0  0  0  0  0  0  0
    7.8044    2.7018    0.0000 C   0  0  0  0  0  0  0  0  0  0  0  0
    8.0782    1.4025    0.0000 C   0  0  0  0  0  0  0  0  0  0  0  0
    8.6247    2.6127    0.0000 C   0  0  0  0  0  0  0  0  0  0  0  0
    7.4715    3.4567    0.0000 C   0  0  0  0  0  0  0  0  0  0  0  0
    9.1119    3.2785    0.0000 C   0  0  0  0  0  0  0  0  0  0  0  0
    7.9587    4.1225    0.0000 C   0  0  0  0  0  0  0  0  0  0  0  0
    8.7789    4.0333    0.0000 C   0  0  0  0  0  0  0  0  0  0  0  0
    9.6876    1.4044    0.0000 H   0  0  0  0  0  0  0  0  0  0  0  0
  1  6  2  0  0  0  0
  2  4  1  0  0  0  0
  2  5  1  0  0  0  0
  2  6  1  0  0  0  0
  3  6  1  0  0  0  0
  3  7  1  0  0  0  0
  3 12  1  0  0  0  0
  5  7  1  0  0  0  0
  5  8  2  0  0  0  0
  7  9  2  0  0  0  0
  8 10  1  0  0  0  0
  9 11  1  0  0  0  0
 10 11  2  0  0  0  0
M  END
$$$$
O=C1CC[C@]2(C(=C1)CC[C@@H]1[C@]2(F)[C@@H](O)C[C@]2([C@H]1CC[C@]2(C)O)C)C
 OpenBabel07182308452D

 28 31  0  0  1  0  0  0  0  0999 V2000
    4.1396    0.5667    0.0000 F   0  0  0  0  0  0  0  0  0  0  0  0
    7.5474    1.4947    0.0000 O   0  0  0  0  0  0  0  0  0  0  0  0
    3.9555    1.1722    0.0000 O   0  0  0  0  0  0  0  0  0  0  0  0
    1.6498   -1.7582    0.0000 O   0  0  0  0  0  0  0  0  0  0  0  0
    6.0987    0.7597    0.0000 C   0  0  1  0  0  0  0  0  0  0  0  0
    6.0987   -0.0653    0.0000 C   0  0  2  0  0  0  0  0  0  0  0  0
    5.3843   -0.4777    0.0000 C   0  0  1  0  0  0  0  0  0  0  0  0
    4.6698   -0.0653    0.0000 C   0  0  2  0  0  0  0  0  0  0  0  0
    6.8793    1.0111    0.0000 C   0  0  2  0  0  0  0  0  0  0  0  0
    5.3843    1.1722    0.0000 C   0  0  0  0  0  0  0  0  0  0  0  0
    3.9192   -0.4833    0.0000 C   0  0  2  0  0  0  0  0  0  0  0  0
    4.6698    0.7597    0.0000 C   0  0  2  0  0  0  0  0  0  0  0  0
    6.8793   -0.3166    0.0000 C   0  0  0  0  0  0  0  0  0  0  0  0
    7.3607    0.3473    0.0000 C   0  0  0  0  0  0  0  0  0  0  0  0
    5.3975   -1.3368    0.0000 C   0  0  0  0  0  0  0  0  0  0  0  0
    6.0987    1.5846    0.0000 C   0  0  0  0  0  0  0  0  0  0  0  0
    3.9126   -1.3425    0.0000 C   0  0  0  0  0  0  0  0  0  0  0  0
    4.6567   -1.7722    0.0000 C   0  0  0  0  0  0  0  0  0  0  0  0
    3.1546   -0.0180    0.0000 C   0  0  0  0  0  0  0  0  0  0  0  0
    6.6257    1.7960    0.0000 C   0  0  0  0  0  0  0  0  0  0  0  0
    3.6431    0.2940    0.0000 C   0  0  0  0  0  0  0  0  0  0  0  0
    2.3727   -0.4535    0.0000 C   0  0  0  0  0  0  0  0  0  0  0  0
    3.1409   -1.7960    0.0000 C   0  0  0  0  0  0  0  0  0  0  0  0
    2.3658   -1.3485    0.0000 C   0  0  0  0  0  0  0  0  0  0  0  0
    6.1685   -0.7215    0.0000 H   0  0  0  0  0  0  0  0  0  0  0  0
    5.9583   -0.8032    0.0000 H   0  0  0  0  0  0  0  0  0  0  0  0
    8.4328    1.0986    0.0000 H   0  0  0  0  0  0  0  0  0  0  0  0
    3.9556    2.1422    0.0000 H   0  0  0  0  0  0  0  0  0  0  0  0
  2 27  1  0  0  0  0
  3 28  1  0  0  0  0
  4 24  2  0  0  0  0
  5  6  1  1  0  0  0
  5 10  1  0  0  0  0
  5 16  1  0  0  0  0
  6  7  1  1  0  0  0
  6 13  1  0  0  0  0
  6 25  1  0  0  0  0
  7  8  1  1  0  0  0
  7 15  1  0  0  0  0
  7 26  1  0  0  0  0
  8  1  1  0  0  0  0
  8 11  1  1  0  0  0
  9  2  1  0  0  0  0
  9  5  1  1  0  0  0
  9 14  1  0  0  0  0
  9 20  1  0  0  0  0
 10 12  1  0  0  0  0
 11 17  1  0  0  0  0
 11 19  1  0  0  0  0
 11 21  1  1  0  0  0
 12  3  1  0  0  0  0
 12  8  1  1  0  0  0
 13 14  1  0  0  0  0
 15 18  1  0  0  0  0
 17 18  1  0  0  0  0
 17 23  2  0  0  0  0
 19 22  1  0  0  0  0
 22 24  1  0  0  0  0
 23 24  1  0  0  0  0
M  END
$$$$
Ic1ccccc1
 OpenBabel07182308452D

  7  7  0  0  1  0  0  0  0  0999 V2000
    1.6500   -3.3001    0.0000 I   0  0  0  0  0  0  0  0  0  0  0  0
    3.0791   -3.3001    0.0000 C   0  0  0  0  0  0  0  0  0  0  0  0
    2.3645   -3.7126    0.0000 C   0  0  0  0  0  0  0  0  0  0  0  0
    3.7935   -3.7126    0.0000 C   0  0  0  0  0  0  0  0  0  0  0  0
    2.3645   -4.5376    0.0000 C   0  0  0  0  0  0  0  0  0  0  0  0
    3.7935   -4.5376    0.0000 C   0  0  0  0  0  0  0  0  0  0  0  0
    3.0791   -4.9501    0.0000 C   0  0  0  0  0  0  0  0  0  0  0  0
  1  3  1  0  0  0  0
  2  3  1  0  0  0  0
  2  4  2  0  0  0  0
  3  5  2  0  0  0  0
  4  6  1  0  0  0  0
  5  7  1  0  0  0  0
  6  7  2  0  0  0  0
M  END
$$$$
Cc1ccn(c(=O)c1)O
 OpenBabel07182308452D

 10 10  0  0  0  0  0  0  0  0999 V2000
    4.5080   -1.4438    0.0000 O   0  0  0  0  0  0  0  0  0  0  0  0
    5.9370   -0.6188    0.0000 O   0  0  0  0  0  0  0  0  0  0  0  0
    4.5080   -0.6188    0.0000 N   0  0  0  0  0  0  0  0  0  0  0  0
    3.7935   -0.2063    0.0000 C   0  0  0  0  0  0  0  0  0  0  0  0
    3.7935    0.6188    0.0000 C   0  0  0  0  0  0  0  0  0  0  0  0
    4.5080    1.0313    0.0000 C   0  0  0  0  0  0  0  0  0  0  0  0
    5.2224   -0.2063    0.0000 C   0  0  0  0  0  0  0  0  0  0  0  0
    5.2224    0.6188    0.0000 C   0  0  0  0  0  0  0  0  0  0  0  0
    4.5080    1.8563    0.0000 C   0  0  0  0  0  0  0  0  0  0  0  0
    3.6680   -1.9288    0.0000 H   0  0  0  0  0  0  0  0  0  0  0  0
  1  3  1  0  0  0  0
  1 10  1  0  0  0  0
  2  7  2  0  0  0  0
  3  4  1  0  0  0  0
  3  7  1  0  0  0  0
  4  5  2  0  0  0  0
  5  6  1  0  0  0  0
  6  8  2  0  0  0  0
  6  9  1  0  0  0  0
  7  8  1  0  0  0  0
M  END
$$$$
OCF
 OpenBabel07182308452D

  3  2  0  0  1  0  0  0  0  0999 V2000
    3.0791    0.9760    0.0000 F   0  0  0  0  0  0  0  0  0  0  0  0
    3.7935   -0.2615    0.0000 O   0  0  0  0  0  0  0  0  0  0  0  0
    3.0791    0.1510    0.0000 C   0  0  0  0  0  0  0  0  0  0  0  0
  1  3  1  0  0  0  0
  2  3  1  0  0  0  0
M  END
$$$$
O[C@H]1CO[C@@H]([C@@H]([C@@H]1O)O)C
 OpenBabel07182308452D

 15 15  0  0  0  0  0  0  0  0999 V2000
    1.9472    0.4071    0.0000 C   0  0  1  0  0  0  0  0  0  0  0  0
    1.9472   -0.4188    0.0000 O   0  0  0  0  0  0  0  0  0  0  0  0
    2.6626    0.8230    0.0000 C   0  0  1  0  0  0  0  0  0  0  0  0
    3.3752   -0.4188    0.0000 C   0  0  2  0  0  0  0  0  0  0  0  0
    3.3752    0.4071    0.0000 C   0  0  1  0  0  0  0  0  0  0  0  0
    1.2287    0.8202    0.0000 C   0  0  0  0  0  0  0  0  0  0  0  0
    2.6626   -0.8318    0.0000 C   0  0  0  0  0  0  0  0  0  0  0  0
    4.0906   -0.8318    0.0000 O   0  0  0  0  0  0  0  0  0  0  0  0
    2.6713    1.6461    0.0000 O   0  0  0  0  0  0  0  0  0  0  0  0
    4.0936    0.8144    0.0000 O   0  0  0  0  0  0  0  0  0  0  0  0
    1.9472    1.2302    0.0000 H   0  0  0  0  0  0  0  0  0  0  0  0
    0.5133    1.2302    0.0000 H   0  0  0  0  0  0  0  0  0  0  0  0
    4.0906   -1.8018    0.0000 H   0  0  0  0  0  0  0  0  0  0  0  0
    3.5164    2.1222    0.0000 H   0  0  0  0  0  0  0  0  0  0  0  0
    4.9298    0.3228    0.0000 H   0  0  0  0  0  0  0  0  0  0  0  0
  1 11  1  1  0  0  0
  2  1  1  0  0  0  0
  3  1  1  6  0  0  0
  3  9  1  0  0  0  0
  4  5  1  0  0  0  0
  4  8  1  1  0  0  0
  5  3  1  0  0  0  0
  5 10  1  6  0  0  0
  6  1  1  0  0  0  0
  6 12  1  0  0  0  0
  7  2  1  0  0  0  0
  7  4  1  0  0  0  0
  8 13  1  0  0  0  0
  9 14  1  0  0  0  0
 10 15  1  0  0  0  0
M  END
$$$$
N[C@H]1CN(C)S(=O)(=O)c2c1ccs2
 OpenBabel07182308452D

 14 15  0  0  1  0  0  0  0  0999 V2000
    5.9370    1.4991    0.0000 S   0  0  0  0  0  0  0  0  0  0  0  0
    7.4321    1.3379    0.0000 S   0  0  0  0  0  0  0  0  0  0  0  0
    6.3495    2.2135    0.0000 O   0  0  0  0  0  0  0  0  0  0  0  0
    5.5245    2.2135    0.0000 O   0  0  0  0  0  0  0  0  0  0  0  0
    5.2224    1.0865    0.0000 N   0  0  0  0  0  0  0  0  0  0  0  0
    5.9370   -0.9760    0.0000 N   0  0  0  0  0  0  0  0  0  0  0  0
    5.9370   -0.1510    0.0000 C   0  0  1  0  0  0  0  0  0  0  0  0
    5.2224    0.2615    0.0000 C   0  0  0  0  0  0  0  0  0  0  0  0
    6.6515    0.2615    0.0000 C   0  0  0  0  0  0  0  0  0  0  0  0
    6.6515    1.0865    0.0000 C   0  0  0  0  0  0  0  0  0  0  0  0
    4.5080    1.4991    0.0000 C   0  0  0  0  0  0  0  0  0  0  0  0
    7.4321    0.0101    0.0000 C   0  0  0  0  0  0  0  0  0  0  0  0
    7.9136    0.6740    0.0000 C   0  0  0  0  0  0  0  0  0  0  0  0
    6.8203   -1.4860    0.0000 H   0  0  0  0  0  0  0  0  0  0  0  0
  1  3  2  0  0  0  0
  1  4  2  0  0  0  0
  1  5  1  0  0  0  0
  1 10  1  0  0  0  0
  2 10  1  0  0  0  0
  2 13  1  0  0  0  0
  5  8  1  0  0  0  0
  5 11  1  0  0  0  0
  6 14  1  0  0  0  0
  7  6  1  1  0  0  0
  7  8  1  0  0  0  0
  7  9  1  0  0  0  0
  9 10  2  0  0  0  0
  9 12  1  0  0  0  0
 12 13  2  0  0  0  0
M  END
$$$$
Oc1ccc(cc1)O
 OpenBabel07182308452D

  8  8  0  0  1  0  0  0  0  0999 V2000
    3.7935   -0.0553    0.0000 O   0  0  0  0  0  0  0  0  0  0  0  0
    6.6515   -1.7053    0.0000 O   0  0  0  0  0  0  0  0  0  0  0  0
    5.2224   -0.0553    0.0000 C   0  0  0  0  0  0  0  0  0  0  0  0
    4.5080   -0.4678    0.0000 C   0  0  0  0  0  0  0  0  0  0  0  0
    5.9370   -0.4678    0.0000 C   0  0  0  0  0  0  0  0  0  0  0  0
    5.9370   -1.2928    0.0000 C   0  0  0  0  0  0  0  0  0  0  0  0
    4.5080   -1.2928    0.0000 C   0  0  0  0  0  0  0  0  0  0  0  0
    5.2224   -1.7053    0.0000 C   0  0  0  0  0  0  0  0  0  0  0  0
  1  4  1  0  0  0  0
  2  6  1  0  0  0  0
  3  4  2  0  0  0  0
  3  5  1  0  0  0  0
  4  7  1  0  0  0  0
  5  6  2  0  0  0  0
  6  8  1  0  0  0  0
  7  8  2  0  0  0  0
M  END
$$$$
O=C1NC(c2c1nccn2)O
 OpenBabel07182308452D

 11 12  0  0  1  0  0  0  0  0999 V2000
    4.1159   -0.4273    0.0000 O   0  0  0  0  0  0  0  0  0  0  0  0
    4.1159   -3.3235    0.0000 O   0  0  0  0  0  0  0  0  0  0  0  0
    4.3412   -1.8754    0.0000 N   0  0  0  0  0  0  0  0  0  0  0  0
    2.3645   -1.0504    0.0000 N   0  0  0  0  0  0  0  0  0  0  0  0
    2.3645   -2.7004    0.0000 N   0  0  0  0  0  0  0  0  0  0  0  0
    3.8597   -1.2115    0.0000 C   0  0  3  0  0  0  0  0  0  0  0  0
    3.0791   -1.4629    0.0000 C   0  0  0  0  0  0  0  0  0  0  0  0
    3.0791   -2.2879    0.0000 C   0  0  0  0  0  0  0  0  0  0  0  0
    3.8597   -2.5393    0.0000 C   0  0  0  0  0  0  0  0  0  0  0  0
    1.6500   -1.4629    0.0000 C   0  0  0  0  0  0  0  0  0  0  0  0
    1.6500   -2.2879    0.0000 C   0  0  0  0  0  0  0  0  0  0  0  0
  1  6  1  0  0  0  0
  2  9  2  0  0  0  0
  3  6  1  0  0  0  0
  3  9  1  0  0  0  0
  4  7  2  0  0  0  0
  4 10  1  0  0  0  0
  5  8  2  0  0  0  0
  5 11  1  0  0  0  0
  6  7  1  0  0  0  0
  7  8  1  0  0  0  0
  8  9  1  0  0  0  0
 10 11  2  0  0  0  0
M  END
$$$$
Oc1ccc2cc1Oc1ccc3c(c1)[C@H](Cc1ccc(Oc4c5[C@@H](C2)[N+](C)(C)CCc5ccc4O)cc1)N(CC3)C
 OpenBabel07182308452D

 45 51  0  0  1  0  0  0  0  0999 V2000
    4.5910    1.1720    0.0000 O   0  0  0  0  0  0  0  0  0  0  0  0
    2.9436    1.9661    0.0000 O   0  0  0  0  0  0  0  0  0  0  0  0
    6.0092   -1.8446    0.0000 O   0  0  0  0  0  0  0  0  0  0  0  0
    7.2458   -1.6909    0.0000 O   0  0  0  0  0  0  0  0  0  0  0  0
    6.5210    2.3815    0.0000 N   0  3  0  0  0  0  0  0  0  0  0  0
    2.4410   -3.0217    0.0000 N   0  0  0  0  0  0  0  0  0  0  0  0
    5.8064    1.9689    0.0000 C   0  0  1  0  0  0  0  0  0  0  0  0
    6.5210    3.2065    0.0000 C   0  0  0  0  0  0  0  0  0  0  0  0
    5.0920    2.3815    0.0000 C   0  0  0  0  0  0  0  0  0  0  0  0
    5.8064    3.6190    0.0000 C   0  0  0  0  0  0  0  0  0  0  0  0
    5.5929    1.1720    0.0000 C   0  0  0  0  0  0  0  0  0  0  0  0
    5.0920    3.2065    0.0000 C   0  0  0  0  0  0  0  0  0  0  0  0
    7.3516    2.3815    0.0000 C   0  0  0  0  0  0  0  0  0  0  0  0
    6.9363    1.6620    0.0000 C   0  0  0  0  0  0  0  0  0  0  0  0
    4.3774    1.9689    0.0000 C   0  0  0  0  0  0  0  0  0  0  0  0
    6.0054    0.4575    0.0000 C   0  0  0  0  0  0  0  0  0  0  0  0
    4.3774    3.6190    0.0000 C   0  0  0  0  0  0  0  0  0  0  0  0
    3.6629    2.3815    0.0000 C   0  0  0  0  0  0  0  0  0  0  0  0
    3.6629    3.2065    0.0000 C   0  0  0  0  0  0  0  0  0  0  0  0
    5.5929   -0.2570    0.0000 C   0  0  0  0  0  0  0  0  0  0  0  0
    6.8305    0.4575    0.0000 C   0  0  0  0  0  0  0  0  0  0  0  0
    3.0747   -2.4934    0.0000 C   0  0  2  0  0  0  0  0  0  0  0  0
    3.8491   -2.7781    0.0000 C   0  0  0  0  0  0  0  0  0  0  0  0
    2.9409   -1.6860    0.0000 C   0  0  0  0  0  0  0  0  0  0  0  0
    2.5817   -3.8347    0.0000 C   0  0  0  0  0  0  0  0  0  0  0  0
    6.0054   -0.9715    0.0000 C   0  0  0  0  0  0  0  0  0  0  0  0
    3.9898   -3.5911    0.0000 C   0  0  0  0  0  0  0  0  0  0  0  0
    3.3561   -4.1194    0.0000 C   0  0  0  0  0  0  0  0  0  0  0  0
    4.1785    0.4575    0.0000 C   0  0  0  0  0  0  0  0  0  0  0  0
    7.2430   -0.2570    0.0000 C   0  0  0  0  0  0  0  0  0  0  0  0
    3.3534   -0.9715    0.0000 C   0  0  0  0  0  0  0  0  0  0  0  0
    6.8305   -0.9715    0.0000 C   0  0  0  0  0  0  0  0  0  0  0  0
    4.4828   -2.2498    0.0000 C   0  0  0  0  0  0  0  0  0  0  0  0
    5.2572   -2.5345    0.0000 C   0  0  0  0  0  0  0  0  0  0  0  0
    4.7642   -3.8757    0.0000 C   0  0  0  0  0  0  0  0  0  0  0  0
    1.6613   -2.7352    0.0000 C   0  0  0  0  0  0  0  0  0  0  0  0
    4.5910   -0.2570    0.0000 C   0  0  0  0  0  0  0  0  0  0  0  0
    3.3534    0.4575    0.0000 C   0  0  0  0  0  0  0  0  0  0  0  0
    5.3979   -3.3474    0.0000 C   0  0  0  0  0  0  0  0  0  0  0  0
    4.1785   -0.9715    0.0000 C   0  0  0  0  0  0  0  0  0  0  0  0
    2.9409   -0.2570    0.0000 C   0  0  0  0  0  0  0  0  0  0  0  0
    6.3387    1.5711    0.0000 H   0  0  0  0  0  0  0  0  0  0  0  0
    2.4518   -2.2620    0.0000 H   0  0  0  0  0  0  0  0  0  0  0  0
    2.1321    2.4345    0.0000 H   0  0  0  0  0  0  0  0  0  0  0  0
    6.7773   -2.5023    0.0000 H   0  0  0  0  0  0  0  0  0  0  0  0
  1 15  1  0  0  0  0
  1 29  1  0  0  0  0
  2 18  1  0  0  0  0
  2 44  1  0  0  0  0
  3 26  1  0  0  0  0
  3 34  1  0  0  0  0
  4 32  1  0  0  0  0
  4 45  1  0  0  0  0
  5  7  1  0  0  0  0
  5  8  1  0  0  0  0
  5 13  1  0  0  0  0
  5 14  1  0  0  0  0
  6 22  1  0  0  0  0
  6 25  1  0  0  0  0
  6 36  1  0  0  0  0
  7  9  1  0  0  0  0
  7 11  1  0  0  0  0
  7 42  1  1  0  0  0
  8 10  1  0  0  0  0
  9 12  1  0  0  0  0
  9 15  2  0  0  0  0
 10 12  1  0  0  0  0
 11 16  1  0  0  0  0
 12 17  2  0  0  0  0
 15 18  1  0  0  0  0
 16 20  2  0  0  0  0
 16 21  1  0  0  0  0
 17 19  1  0  0  0  0
 18 19  2  0  0  0  0
 20 26  1  0  0  0  0
 21 30  2  0  0  0  0
 22 23  1  0  0  0  0
 22 24  1  0  0  0  0
 22 43  1  6  0  0  0
 23 27  1  0  0  0  0
 23 33  2  0  0  0  0
 24 31  1  0  0  0  0
 25 28  1  0  0  0  0
 26 32  2  0  0  0  0
 27 28  1  0  0  0  0
 27 35  2  0  0  0  0
 29 37  2  0  0  0  0
 29 38  1  0  0  0  0
 30 32  1  0  0  0  0
 31 40  2  0  0  0  0
 31 41  1  0  0  0  0
 33 34  1  0  0  0  0
 34 39  2  0  0  0  0
 35 39  1  0  0  0  0
 37 40  1  0  0  0  0
 38 41  2  0  0  0  0
M  CHG  1   5   1
M  END
$$$$
CN1CCC=C2[C@H]1Cc1c(Br)[nH]c3c1c2ccc3
 OpenBabel07182308452D

 20 23  0  0  0  0  0  0  0  0999 V2000
    0.3586   -2.3936    0.0000 C   0  0  1  0  0  0  0  0  0  0  0  0
    1.0731   -1.9812    0.0000 N   0  0  0  0  0  0  0  0  0  0  0  0
    0.3586   -0.7437    0.0000 C   0  0  0  0  0  0  0  0  0  0  0  0
   -0.3558   -1.1562    0.0000 C   0  0  0  0  0  0  0  0  0  0  0  0
    1.0731   -1.1562    0.0000 C   0  0  0  0  0  0  0  0  0  0  0  0
   -0.3558   -1.9812    0.0000 C   0  0  0  0  0  0  0  0  0  0  0  0
    1.7875   -2.3936    0.0000 C   0  0  0  0  0  0  0  0  0  0  0  0
   -1.0406   -3.2042    0.0000 C   0  0  0  0  0  0  0  0  0  0  0  0
   -1.0702   -2.3935    0.0000 C   0  0  0  0  0  0  0  0  0  0  0  0
   -1.6932   -3.6804    0.0000 C   0  0  0  0  0  0  0  0  0  0  0  0
   -1.8163   -2.0299    0.0000 C   0  0  0  0  0  0  0  0  0  0  0  0
    0.3642   -3.2196    0.0000 C   0  0  0  0  0  0  0  0  0  0  0  0
   -2.4396   -3.3172    0.0000 C   0  0  0  0  0  0  0  0  0  0  0  0
   -2.5020   -2.4915    0.0000 C   0  0  0  0  0  0  0  0  0  0  0  0
   -0.3528   -3.6348    0.0000 C   0  0  0  0  0  0  0  0  0  0  0  0
   -0.5837   -4.4328    0.0000 C   0  0  0  0  0  0  0  0  0  0  0  0
   -0.0975   -5.0993    0.0000 Br  0  0  0  0  0  0  0  0  0  0  0  0
   -1.4110   -4.4604    0.0000 N   0  0  0  0  0  0  0  0  0  0  0  0
    1.0730   -2.8060    0.0000 H   0  0  0  0  0  0  0  0  0  0  0  0
   -1.9629   -5.2756    0.0000 H   0  0  0  0  0  0  0  0  0  0  0  0
  1 12  1  0  0  0  0
  1 19  1  1  0  0  0
  1  2  1  0  0  0  0
  2  7  1  0  0  0  0
  2  5  1  0  0  0  0
  3  4  1  0  0  0  0
  3  5  1  0  0  0  0
  6  1  1  0  0  0  0
  6  4  2  0  0  0  0
  6  9  1  0  0  0  0
  8  9  2  0  0  0  0
  8 15  1  0  0  0  0
  8 10  1  0  0  0  0
  9 11  1  0  0  0  0
 10 18  1  0  0  0  0
 10 13  2  0  0  0  0
 11 14  2  0  0  0  0
 13 14  1  0  0  0  0
 15 12  1  0  0  0  0
 15 16  2  0  0  0  0
 16 18  1  0  0  0  0
 16 17  1  0  0  0  0
 18 20  1  0  0  0  0
M  END
$$$$
N[C@@H]1O[C@@]2(N(C1=O)[C@@H](C)C(=O)N1[C@H]2CCC1)O
 OpenBabel07182308452D

 20 22  0  0  0  0  0  0  0  0999 V2000
    0.0816    3.8620    0.0000 C   0  0  0  0  0  0  0  0  0  0  0  0
    0.7960    3.4493    0.0000 C   0  0  1  0  0  0  0  0  0  0  0  0
    0.7959    2.6244    0.0000 N   0  0  0  0  0  0  0  0  0  0  0  0
   -0.6329    3.4496    0.0000 N   0  0  0  0  0  0  0  0  0  0  0  0
   -1.4175    2.3698    0.0000 C   0  0  0  0  0  0  0  0  0  0  0  0
   -1.9024    3.0373    0.0000 C   0  0  0  0  0  0  0  0  0  0  0  0
   -1.4174    3.7046    0.0000 C   0  0  0  0  0  0  0  0  0  0  0  0
    0.2528    1.4051    0.0000 O   0  0  0  0  0  0  0  0  0  0  0  0
    0.0817    4.6869    0.0000 O   0  0  0  0  0  0  0  0  0  0  0  0
    1.4088    2.0721    0.0000 C   0  0  0  0  0  0  0  0  0  0  0  0
    2.2158    2.2437    0.0000 O   0  0  0  0  0  0  0  0  0  0  0  0
    1.0732    1.3187    0.0000 C   0  0  2  0  0  0  0  0  0  0  0  0
    1.5104    3.8617    0.0000 C   0  0  0  0  0  0  0  0  0  0  0  0
    1.0731    0.4937    0.0000 N   0  0  0  0  0  0  0  0  0  0  0  0
   -0.6330    2.6246    0.0000 C   0  0  1  0  0  0  0  0  0  0  0  0
   -0.6330    1.7996    0.0000 H   0  0  0  0  0  0  0  0  0  0  0  0
    0.0813    2.2120    0.0000 C   0  0  1  0  0  0  0  0  0  0  0  0
    0.0814    3.0370    0.0000 O   0  0  0  0  0  0  0  0  0  0  0  0
    1.9257    0.0014    0.0000 H   0  0  0  0  0  0  0  0  0  0  0  0
    0.9215    3.5219    0.0000 H   0  0  0  0  0  0  0  0  0  0  0  0
  1  9  2  0  0  0  0
  1  4  1  0  0  0  0
  2  1  1  0  0  0  0
  2 13  1  6  0  0  0
  3  2  1  0  0  0  0
  3 10  1  0  0  0  0
  4  7  1  0  0  0  0
  4 15  1  0  0  0  0
  5  6  1  0  0  0  0
  6  7  1  0  0  0  0
 10 11  2  0  0  0  0
 12  8  1  0  0  0  0
 12 10  1  0  0  0  0
 12 14  1  6  0  0  0
 14 19  1  0  0  0  0
 15  5  1  0  0  0  0
 15 17  1  6  0  0  0
 15 16  1  0  0  0  0
 17  3  1  0  0  0  0
 17  8  1  0  0  0  0
 17 18  1  6  0  0  0
 18 20  1  0  0  0  0
M  END
$$$$
O=C1CCCN1C
 OpenBabel07182308452D

  7  7  0  0  0  0  0  0  0  0999 V2000
   -0.0115    0.3964    0.0000 N   0  0  0  0  0  0  0  0  0  0  0  0
   -0.0115   -0.4285    0.0000 C   0  0  0  0  0  0  0  0  0  0  0  0
    0.6559    0.8813    0.0000 C   0  0  0  0  0  0  0  0  0  0  0  0
   -0.6789    0.8813    0.0000 C   0  0  0  0  0  0  0  0  0  0  0  0
    0.4009    1.6660    0.0000 C   0  0  0  0  0  0  0  0  0  0  0  0
    1.4405    0.6264    0.0000 O   0  0  0  0  0  0  0  0  0  0  0  0
   -0.4240    1.6660    0.0000 C   0  0  0  0  0  0  0  0  0  0  0  0
  2  1  1  0  0  0  0
  3  1  1  0  0  0  0
  4  1  1  0  0  0  0
  5  3  1  0  0  0  0
  6  3  2  0  0  0  0
  7  4  1  0  0  0  0
  7  5  1  0  0  0  0
M  END
$$$$
O[C@H]1Cc2c(C[C@H]1O)cccc2O
 OpenBabel07182308452D

 15 16  0  0  1  0  0  0  0  0999 V2000
    1.6500    1.1569    0.0000 O   0  0  0  0  0  0  0  0  0  0  0  0
    1.6500    2.8069    0.0000 O   0  0  0  0  0  0  0  0  0  0  0  0
    4.5214    0.3034    0.0000 O   0  0  0  0  0  0  0  0  0  0  0  0
    2.3645    1.5694    0.0000 C   0  0  2  0  0  0  0  0  0  0  0  0
    2.3645    2.3944    0.0000 C   0  0  1  0  0  0  0  0  0  0  0  0
    3.0790    1.1569    0.0000 C   0  0  0  0  0  0  0  0  0  0  0  0
    3.0790    2.8069    0.0000 C   0  0  0  0  0  0  0  0  0  0  0  0
    3.7934    1.5694    0.0000 C   0  0  0  0  0  0  0  0  0  0  0  0
    3.7934    2.3944    0.0000 C   0  0  0  0  0  0  0  0  0  0  0  0
    4.5309    1.1283    0.0000 C   0  0  0  0  0  0  0  0  0  0  0  0
    4.5309    2.8355    0.0000 C   0  0  0  0  0  0  0  0  0  0  0  0
    5.2784    1.5522    0.0000 C   0  0  0  0  0  0  0  0  0  0  0  0
    5.2784    2.4116    0.0000 C   0  0  0  0  0  0  0  0  0  0  0  0
    0.8100    1.6419    0.0000 H   0  0  0  0  0  0  0  0  0  0  0  0
    1.6500    3.7769    0.0000 H   0  0  0  0  0  0  0  0  0  0  0  0
  1 14  1  0  0  0  0
  2 15  1  0  0  0  0
  3 10  1  0  0  0  0
  4  1  1  6  0  0  0
  4  5  1  0  0  0  0
  4  6  1  0  0  0  0
  5  2  1  6  0  0  0
  5  7  1  0  0  0  0
  6  8  1  0  0  0  0
  7  9  1  0  0  0  0
  8  9  2  0  0  0  0
  8 10  1  0  0  0  0
  9 11  1  0  0  0  0
 10 12  2  0  0  0  0
 11 13  2  0  0  0  0
 12 13  1  0  0  0  0
M  END
$$$$
Nc1ccc(c2c1C(=O)c1c(O)ccc(c1C2=O)O)N
 OpenBabel07182308452D

 24 26  0  0  0  0  0  0  0  0999 V2000
   -3.2151    0.8249    0.0000 C   0  0  0  0  0  0  0  0  0  0  0  0
   -3.9296    0.4124    0.0000 C   0  0  0  0  0  0  0  0  0  0  0  0
   -3.9296   -0.4125    0.0000 C   0  0  0  0  0  0  0  0  0  0  0  0
   -3.2151   -0.8250    0.0000 C   0  0  0  0  0  0  0  0  0  0  0  0
   -2.5006   -0.4125    0.0000 C   0  0  0  0  0  0  0  0  0  0  0  0
   -2.5006    0.4124    0.0000 C   0  0  0  0  0  0  0  0  0  0  0  0
   -1.7861    0.8249    0.0000 C   0  0  0  0  0  0  0  0  0  0  0  0
   -1.7861   -0.8250    0.0000 C   0  0  0  0  0  0  0  0  0  0  0  0
   -1.0716   -0.4125    0.0000 C   0  0  0  0  0  0  0  0  0  0  0  0
   -1.0716    0.4124    0.0000 C   0  0  0  0  0  0  0  0  0  0  0  0
   -0.3572    0.8249    0.0000 C   0  0  0  0  0  0  0  0  0  0  0  0
   -0.3572   -0.8250    0.0000 C   0  0  0  0  0  0  0  0  0  0  0  0
    0.3572   -0.4125    0.0000 C   0  0  0  0  0  0  0  0  0  0  0  0
    0.3572    0.4124    0.0000 C   0  0  0  0  0  0  0  0  0  0  0  0
   -3.2151    1.6499    0.0000 O   0  0  0  0  0  0  0  0  0  0  0  0
   -3.2151   -1.6500    0.0000 O   0  0  0  0  0  0  0  0  0  0  0  0
   -1.7861    1.6499    0.0000 O   0  0  0  0  0  0  0  0  0  0  0  0
   -1.7861   -1.6500    0.0000 O   0  0  0  0  0  0  0  0  0  0  0  0
   -0.3572    1.6499    0.0000 N   0  0  0  0  0  0  0  0  0  0  0  0
   -0.3572   -1.6500    0.0000 N   0  0  0  0  0  0  0  0  0  0  0  0
   -2.4036    2.1184    0.0000 H   0  0  0  0  0  0  0  0  0  0  0  0
   -4.0266   -2.1185    0.0000 H   0  0  0  0  0  0  0  0  0  0  0  0
   -1.2098    2.1421    0.0000 H   0  0  0  0  0  0  0  0  0  0  0  0
   -1.2098   -2.1422    0.0000 H   0  0  0  0  0  0  0  0  0  0  0  0
  1  2  2  0  0  0  0
  1  6  1  0  0  0  0
  1 15  1  0  0  0  0
  2  3  1  0  0  0  0
  3  4  2  0  0  0  0
  4  5  1  0  0  0  0
  4 16  1  0  0  0  0
  5  8  1  0  0  0  0
  6  5  2  0  0  0  0
  7  6  1  0  0  0  0
  7 10  1  0  0  0  0
  7 17  2  0  0  0  0
  8  9  1  0  0  0  0
  8 18  2  0  0  0  0
  9 12  1  0  0  0  0
 10  9  2  0  0  0  0
 11 10  1  0  0  0  0
 11 14  2  0  0  0  0
 11 19  1  0  0  0  0
 12 13  2  0  0  0  0
 12 20  1  0  0  0  0
 13 14  1  0  0  0  0
 15 21  1  0  0  0  0
 16 22  1  0  0  0  0
 19 23  1  0  0  0  0
 20 24  1  0  0  0  0
M  END
$$$$
Fc1ccc2c(c1)C(=O)N(C)Cc1n2cnc1
 OpenBabel07182308452D

 17 19  0  0  0  0  0  0  0  0999 V2000
    1.6500    0.4818    0.0000 F   0  0  0  0  0  0  0  0  0  0  0  0
    4.0454    1.9376    0.0000 O   0  0  0  0  0  0  0  0  0  0  0  0
    4.8158   -0.6130    0.0000 N   0  0  0  0  0  0  0  0  0  0  0  0
    5.2283    1.1943    0.0000 N   0  0  0  0  0  0  0  0  0  0  0  0
    5.7351   -1.5711    0.0000 N   0  0  0  0  0  0  0  0  0  0  0  0
    5.5592   -0.2550    0.0000 C   0  0  0  0  0  0  0  0  0  0  0  0
    5.7427    0.5493    0.0000 C   0  0  0  0  0  0  0  0  0  0  0  0
    4.0726   -0.2550    0.0000 C   0  0  0  0  0  0  0  0  0  0  0  0
    3.8889    0.5493    0.0000 C   0  0  0  0  0  0  0  0  0  0  0  0
    6.1244   -0.8493    0.0000 C   0  0  0  0  0  0  0  0  0  0  0  0
    4.4033    1.1943    0.0000 C   0  0  0  0  0  0  0  0  0  0  0  0
    4.9280   -1.4253    0.0000 C   0  0  0  0  0  0  0  0  0  0  0  0
    3.4517   -0.8492    0.0000 C   0  0  0  0  0  0  0  0  0  0  0  0
    5.5863    1.9376    0.0000 C   0  0  0  0  0  0  0  0  0  0  0  0
    3.0718    0.8153    0.0000 C   0  0  0  0  0  0  0  0  0  0  0  0
    2.6286   -0.6022    0.0000 C   0  0  0  0  0  0  0  0  0  0  0  0
    2.4374    0.2356    0.0000 C   0  0  0  0  0  0  0  0  0  0  0  0
  1 17  1  0  0  0  0
  2 11  2  0  0  0  0
  3  6  1  0  0  0  0
  3  8  1  0  0  0  0
  3 12  1  0  0  0  0
  4  7  1  0  0  0  0
  4 11  1  0  0  0  0
  4 14  1  0  0  0  0
  5 10  1  0  0  0  0
  5 12  2  0  0  0  0
  6  7  1  0  0  0  0
  6 10  2  0  0  0  0
  8  9  2  0  0  0  0
  8 13  1  0  0  0  0
  9 11  1  0  0  0  0
  9 15  1  0  0  0  0
 13 16  2  0  0  0  0
 15 17  2  0  0  0  0
 16 17  1  0  0  0  0
M  END
$$$$
Fc1cc(F)c2c(c1N)c(=O)cc[nH]2
 OpenBabel07182308452D

 16 17  0  0  1  0  0  0  0  0999 V2000
    5.2224   -1.1591    0.0000 F   0  0  0  0  0  0  0  0  0  0  0  0
    3.7935    1.3159    0.0000 F   0  0  0  0  0  0  0  0  0  0  0  0
    6.6649    2.1695    0.0000 O   0  0  0  0  0  0  0  0  0  0  0  0
    6.6745   -0.3628    0.0000 N   0  0  0  0  0  0  0  0  0  0  0  0
    5.2224    2.1409    0.0000 N   0  0  0  0  0  0  0  0  0  0  0  0
    5.9370    0.0784    0.0000 C   0  0  0  0  0  0  0  0  0  0  0  0
    4.5080    0.0784    0.0000 C   0  0  0  0  0  0  0  0  0  0  0  0
    7.4220    0.0612    0.0000 C   0  0  0  0  0  0  0  0  0  0  0  0
    5.9370    0.9034    0.0000 C   0  0  0  0  0  0  0  0  0  0  0  0
    5.2224   -0.3341    0.0000 C   0  0  0  0  0  0  0  0  0  0  0  0
    5.2224    1.3159    0.0000 C   0  0  0  0  0  0  0  0  0  0  0  0
    7.4220    0.9206    0.0000 C   0  0  0  0  0  0  0  0  0  0  0  0
    4.5080    0.9034    0.0000 C   0  0  0  0  0  0  0  0  0  0  0  0
    6.6745    1.3445    0.0000 C   0  0  0  0  0  0  0  0  0  0  0  0
    6.0750    2.6331    0.0000 H   0  0  0  0  0  0  0  0  0  0  0  0
    4.3698    2.6331    0.0000 H   0  0  0  0  0  0  0  0  0  0  0  0
  1 10  1  0  0  0  0
  2 13  1  0  0  0  0
  3 14  2  0  0  0  0
  4  6  1  0  0  0  0
  4  8  1  0  0  0  0
  5 11  1  0  0  0  0
  5 15  1  0  0  0  0
  5 16  1  0  0  0  0
  6  9  1  0  0  0  0
  6 10  2  0  0  0  0
  7 10  1  0  0  0  0
  7 13  2  0  0  0  0
  8 12  2  0  0  0  0
  9 11  2  0  0  0  0
  9 14  1  0  0  0  0
 11 13  1  0  0  0  0
 12 14  1  0  0  0  0
M  END
$$$$
C[C@@H]1CNC[C@@H](N1)C
 OpenBabel07182308452D

  9  9  0  0  1  0  0  0  0  0999 V2000
    3.7935   -0.3341    0.0000 N   0  0  0  0  0  0  0  0  0  0  0  0
    2.3645   -1.1591    0.0000 N   0  0  0  0  0  0  0  0  0  0  0  0
    3.0790   -1.5717    0.0000 C   0  0  2  0  0  0  0  0  0  0  0  0
    2.3645   -0.3341    0.0000 C   0  0  1  0  0  0  0  0  0  0  0  0
    3.7935   -1.1591    0.0000 C   0  0  0  0  0  0  0  0  0  0  0  0
    3.0790    0.0784    0.0000 C   0  0  0  0  0  0  0  0  0  0  0  0
    3.0790   -2.3967    0.0000 C   0  0  0  0  0  0  0  0  0  0  0  0
    1.6500    0.0784    0.0000 C   0  0  0  0  0  0  0  0  0  0  0  0
    1.4811   -1.6691    0.0000 H   0  0  0  0  0  0  0  0  0  0  0  0
  1  5  1  0  0  0  0
  1  6  1  0  0  0  0
  2  3  1  0  0  0  0
  2  4  1  0  0  0  0
  2  9  1  0  0  0  0
  3  5  1  0  0  0  0
  3  7  1  6  0  0  0
  4  6  1  0  0  0  0
  4  8  1  6  0  0  0
M  END
$$$$
Oc1ccc2c(c1)[C@@]1(C)CCCCC[C@@H](C2)[C@@H]1N
 OpenBabel07182308452D

 22 24  0  0  1  0  0  0  0  0999 V2000
   18.8939   -5.1899    0.0000 C   0  0  0  0  0  0  0  0  0  0  0  0
   18.1188   -5.1899    0.0000 C   0  0  1  0  0  0  0  0  0  0  0  0
   19.3779   -4.6066    0.0000 C   0  0  0  0  0  0  0  0  0  0  0  0
   15.2537   -4.3585    0.0000 C   0  0  0  0  0  0  0  0  0  0  0  0
   15.2524   -5.1858    0.0000 C   0  0  0  0  0  0  0  0  0  0  0  0
   15.9671   -5.5985    0.0000 C   0  0  0  0  0  0  0  0  0  0  0  0
   15.9653   -3.9460    0.0000 C   0  0  0  0  0  0  0  0  0  0  0  0
   16.6805   -4.3549    0.0000 C   0  0  0  0  0  0  0  0  0  0  0  0
   16.6794   -5.1879    0.0000 C   0  0  0  0  0  0  0  0  0  0  0  0
   17.3961   -5.6029    0.0000 C   0  0  0  0  0  0  0  0  0  0  0  0
   18.1199   -4.3570    0.0000 C   0  0  1  0  0  0  0  0  0  0  0  0
   17.3986   -3.9373    0.0000 C   0  0  2  0  0  0  0  0  0  0  0  0
   18.7430   -4.0563    0.0000 N   0  0  0  0  0  0  0  0  0  0  0  0
   18.1129   -6.0123    0.0000 H   0  0  0  0  0  0  0  0  0  0  0  0
   14.5393   -3.9463    0.0000 O   0  0  0  0  0  0  0  0  0  0  0  0
   18.8067   -3.3539    0.0000 C   0  0  0  0  0  0  0  0  0  0  0  0
   17.9819   -3.3539    0.0000 C   0  0  0  0  0  0  0  0  0  0  0  0
   19.3901   -3.9373    0.0000 C   0  0  0  0  0  0  0  0  0  0  0  0
   16.8161   -3.3493    0.0000 C   0  0  0  0  0  0  0  0  0  0  0  0
   19.5862   -4.6302    0.0000 H   0  0  0  0  0  0  0  0  0  0  0  0
   18.8184   -3.0391    0.0000 H   0  0  0  0  0  0  0  0  0  0  0  0
   14.5390   -3.0093    0.0000 H   0  0  0  0  0  0  0  0  0  0  0  0
  1  3  1  0  0  0  0
  2  1  1  0  0  0  0
  2 14  1  6  0  0  0
  3 18  1  0  0  0  0
  4  5  2  0  0  0  0
  4 15  1  0  0  0  0
  5  6  1  0  0  0  0
  6  9  2  0  0  0  0
  7  4  1  0  0  0  0
  8  9  1  0  0  0  0
  8  7  2  0  0  0  0
  8 12  1  0  0  0  0
  9 10  1  0  0  0  0
 10  2  1  0  0  0  0
 11  2  1  1  0  0  0
 11 12  1  0  0  0  0
 11 13  1  0  0  0  0
 12 17  1  0  0  0  0
 12 19  1  6  0  0  0
 13 20  1  0  0  0  0
 13 21  1  0  0  0  0
 15 22  1  0  0  0  0
 16 18  1  0  0  0  0
 17 16  1  0  0  0  0
M  END
$$$$
O=C1CCCc2c1cccc2O
 OpenBabel07182308452D

 12 13  0  0  1  0  0  0  0  0999 V2000
    4.5080    0.1367    0.0000 O   0  0  0  0  0  0  0  0  0  0  0  0
    5.9504    3.4653    0.0000 O   0  0  0  0  0  0  0  0  0  0  0  0
    5.9600    0.9332    0.0000 C   0  0  0  0  0  0  0  0  0  0  0  0
    5.2224    1.3742    0.0000 C   0  0  0  0  0  0  0  0  0  0  0  0
    6.7075    1.3571    0.0000 C   0  0  0  0  0  0  0  0  0  0  0  0
    6.7075    2.2164    0.0000 C   0  0  0  0  0  0  0  0  0  0  0  0
    5.2224    2.1993    0.0000 C   0  0  0  0  0  0  0  0  0  0  0  0
    4.5080    0.9617    0.0000 C   0  0  0  0  0  0  0  0  0  0  0  0
    5.9600    2.6404    0.0000 C   0  0  0  0  0  0  0  0  0  0  0  0
    4.5080    2.6118    0.0000 C   0  0  0  0  0  0  0  0  0  0  0  0
    3.7935    1.3742    0.0000 C   0  0  0  0  0  0  0  0  0  0  0  0
    3.7935    2.1993    0.0000 C   0  0  0  0  0  0  0  0  0  0  0  0
  1  8  1  0  0  0  0
  2  9  2  0  0  0  0
  3  4  1  0  0  0  0
  3  5  1  0  0  0  0
  4  7  2  0  0  0  0
  4  8  1  0  0  0  0
  5  6  1  0  0  0  0
  6  9  1  0  0  0  0
  7  9  1  0  0  0  0
  7 10  1  0  0  0  0
  8 11  2  0  0  0  0
 10 12  2  0  0  0  0
 11 12  1  0  0  0  0
M  END
$$$$
O[C@H]1C(C)C[C@@H](C)C(=O)[C@H](C)[C@@H](O)[C@](COC(=O)[C@@H](C[C@@H]1C)C)(C)O
 OpenBabel07182308452D

 27 27  0  0  0  0  0  0  0  0999 V2000
    4.6667  -11.7500    0.0000 C   0  0  0  0  0  0  0  0  0  0  0  0
    3.2292  -11.7542    0.0000 C   0  0  0  0  0  0  0  0  0  0  0  0
    2.5042   -9.6917    0.0000 C   0  0  1  0  0  0  0  0  0  0  0  0
    3.9542  -12.1625    0.0000 C   0  0  2  0  0  0  0  0  0  0  0  0
    5.3750  -10.5167    0.0000 C   0  0  1  0  0  0  0  0  0  0  0  0
    4.6625  -10.9250    0.0000 C   0  0  1  0  0  0  0  0  0  0  0  0
    3.2292   -8.4542    0.0000 C   0  0  2  0  0  0  0  0  0  0  0  0
    3.2292  -10.9292    0.0000 O   0  0  0  0  0  0  0  0  0  0  0  0
    3.2292   -9.2792    0.0000 C   0  0  1  0  0  0  0  0  0  0  0  0
    3.9417   -8.0417    0.0000 C   0  0  0  0  0  0  0  0  0  0  0  0
    6.0875  -10.9292    0.0000 O   0  0  0  0  0  0  0  0  0  0  0  0
    5.3750   -9.6917    0.0000 C   0  0  3  0  0  0  0  0  0  0  0  0
    2.5167  -10.5167    0.0000 C   0  0  0  0  0  0  0  0  0  0  0  0
    4.6625   -8.4542    0.0000 C   0  0  1  0  0  0  0  0  0  0  0  0
    4.6625   -9.2792    0.0000 C   0  0  0  0  0  0  0  0  0  0  0  0
    2.5167  -12.1667    0.0000 O   0  0  0  0  0  0  0  0  0  0  0  0
    3.9417   -7.2167    0.0000 O   0  0  0  0  0  0  0  0  0  0  0  0
    2.0042   -9.0417    0.0000 O   0  0  0  0  0  0  0  0  0  0  0  0
    3.9417   -9.6917    0.0000 O   0  0  0  0  0  0  0  0  0  0  0  0
    1.8417   -9.9375    0.0000 C   0  0  0  0  0  0  0  0  0  0  0  0
    3.8875  -12.8500    0.0000 C   0  0  0  0  0  0  0  0  0  0  0  0
    3.9417  -10.5125    0.0000 C   0  0  0  0  0  0  0  0  0  0  0  0
    2.5167   -8.0417    0.0000 C   0  0  0  0  0  0  0  0  0  0  0  0
    6.0875  -10.1042    0.0000 C   0  0  0  0  0  0  0  0  0  0  0  0
    5.3750   -8.0417    0.0000 C   0  0  0  0  0  0  0  0  0  0  0  0
    2.3743   -8.1451    0.0000 H   0  0  0  0  0  0  0  0  0  0  0  0
    3.9405  -10.6617    0.0000 H   0  0  0  0  0  0  0  0  0  0  0  0
  1  6  1  0  0  0  0
  2  4  1  0  0  0  0
  3 18  1  0  0  0  0
  3 20  1  6  0  0  0
  4  1  1  0  0  0  0
  4 21  1  1  0  0  0
  5 11  1  6  0  0  0
  6  5  1  0  0  0  0
  6 22  1  6  0  0  0
  7 10  1  0  0  0  0
  7 23  1  1  0  0  0
  8  2  1  0  0  0  0
  9  3  1  1  0  0  0
  9  7  1  0  0  0  0
  9 19  1  0  0  0  0
 10 14  1  0  0  0  0
 12  5  1  0  0  0  0
 13  8  1  0  0  0  0
 13  3  1  0  0  0  0
 14 15  1  0  0  0  0
 14 25  1  6  0  0  0
 15 12  1  0  0  0  0
 16  2  2  0  0  0  0
 17 10  2  0  0  0  0
 18 26  1  0  0  0  0
 19 27  1  0  0  0  0
 24 12  1  0  0  0  0
M  END
$$$$
O[C@H]1CC(C)[C@H]([C@@H](O1)C)O
 OpenBabel07182308452D

 12 12  0  0  0  0  0  0  0  0999 V2000
    4.5000  -14.8375    0.0000 C   0  0  3  0  0  0  0  0  0  0  0  0
    4.5125  -13.3042    0.0000 C   0  0  1  0  0  0  0  0  0  0  0  0
    4.9292  -14.1292    0.0000 C   0  0  0  0  0  0  0  0  0  0  0  0
    3.7042  -13.3792    0.0000 O   0  0  0  0  0  0  0  0  0  0  0  0
    3.6750  -14.8125    0.0000 C   0  0  2  0  0  0  0  0  0  0  0  0
    5.0917  -12.5750    0.0000 O   0  0  0  0  0  0  0  0  0  0  0  0
    3.2750  -14.0792    0.0000 C   0  0  2  0  0  0  0  0  0  0  0  0
    3.2292  -15.5042    0.0000 O   0  0  0  0  0  0  0  0  0  0  0  0
    5.3167  -14.8625    0.0000 C   0  0  0  0  0  0  0  0  0  0  0  0
    2.4417  -14.0667    0.0000 C   0  0  0  0  0  0  0  0  0  0  0  0
    5.4292  -13.3417    0.0000 H   0  0  0  0  0  0  0  0  0  0  0  0
    2.2604  -15.4568    0.0000 H   0  0  0  0  0  0  0  0  0  0  0  0
  1  3  1  0  0  0  0
  1  5  1  0  0  0  0
  2  6  1  0  0  0  0
  2 11  1  6  0  0  0
  3  2  1  0  0  0  0
  4  2  1  0  0  0  0
  5  7  1  0  0  0  0
  5  8  1  1  0  0  0
  7  4  1  0  0  0  0
  7 10  1  6  0  0  0
  8 12  1  0  0  0  0
  9  1  1  0  0  0  0
M  END
$$$$
Sc1nc(=O)c(=O)[nH]n1C
 OpenBabel07182308452D

 11 11  0  0  1  0  0  0  0  0999 V2000
   17.4488  -11.5504    0.0000 S   0  0  0  0  0  0  0  0  0  0  0  0
   18.1501  -11.9629    0.0000 C   0  0  0  0  0  0  0  0  0  0  0  0
   18.1501  -12.7879    0.0000 N   0  0  0  0  0  0  0  0  0  0  0  0
   18.8513  -13.2004    0.0000 C   0  0  0  0  0  0  0  0  0  0  0  0
   19.5938  -12.7879    0.0000 C   0  0  0  0  0  0  0  0  0  0  0  0
   19.5938  -11.9629    0.0000 N   0  0  0  0  0  0  0  0  0  0  0  0
   18.8513  -11.5504    0.0000 N   0  0  0  0  0  0  0  0  0  0  0  0
   18.8513  -14.0254    0.0000 O   0  0  0  0  0  0  0  0  0  0  0  0
   20.2950  -13.2004    0.0000 O   0  0  0  0  0  0  0  0  0  0  0  0
   18.8513  -10.7254    0.0000 C   0  0  0  0  0  0  0  0  0  0  0  0
   20.4423  -11.4636    0.0000 H   0  0  0  0  0  0  0  0  0  0  0  0
  1  2  1  0  0  0  0
  2  3  2  0  0  0  0
  2  7  1  0  0  0  0
  3  4  1  0  0  0  0
  4  5  1  0  0  0  0
  4  8  2  0  0  0  0
  5  6  1  0  0  0  0
  5  9  2  0  0  0  0
  6  7  1  0  0  0  0
  6 11  1  0  0  0  0
  7 10  1  0  0  0  0
M  END
$$$$
Cc1c[nH]nc1
 OpenBabel07182308452D

  7  7  0  0  0  0  0  0  0  0999 V2000
    2.3176   -0.7128    0.0000 N   0  0  0  0  0  0  0  0  0  0  0  0
    1.6501   -0.2278    0.0000 N   0  0  0  0  0  0  0  0  0  0  0  0
    2.7301    0.5568    0.0000 C   0  0  0  0  0  0  0  0  0  0  0  0
    2.9850   -0.2278    0.0000 C   0  0  0  0  0  0  0  0  0  0  0  0
    3.2150    1.2243    0.0000 C   0  0  0  0  0  0  0  0  0  0  0  0
    1.9050    0.5568    0.0000 C   0  0  0  0  0  0  0  0  0  0  0  0
    2.3176   -1.6973    0.0000 H   0  0  0  0  0  0  0  0  0  0  0  0
  1  2  1  0  0  0  0
  1  4  1  0  0  0  0
  1  7  1  0  0  0  0
  2  6  2  0  0  0  0
  3  4  2  0  0  0  0
  3  5  1  0  0  0  0
  3  6  1  0  0  0  0
M  END
$$$$
Cc1ccc(c(c1O)C)C
 OpenBabel07182308452D

 10 10  0  0  1  0  0  0  0  0999 V2000
    3.0791    2.8876    0.0000 O   0  0  0  0  0  0  0  0  0  0  0  0
    3.0791    0.4125    0.0000 C   0  0  0  0  0  0  0  0  0  0  0  0
    2.3645    0.8250    0.0000 C   0  0  0  0  0  0  0  0  0  0  0  0
    2.3645    1.6500    0.0000 C   0  0  0  0  0  0  0  0  0  0  0  0
    3.7935    1.6500    0.0000 C   0  0  0  0  0  0  0  0  0  0  0  0
    3.0791    2.0625    0.0000 C   0  0  0  0  0  0  0  0  0  0  0  0
    3.7935    0.8250    0.0000 C   0  0  0  0  0  0  0  0  0  0  0  0
    1.6500    0.4125    0.0000 C   0  0  0  0  0  0  0  0  0  0  0  0
    1.6500    2.0625    0.0000 C   0  0  0  0  0  0  0  0  0  0  0  0
    4.5080    2.0625    0.0000 C   0  0  0  0  0  0  0  0  0  0  0  0
  1  6  1  0  0  0  0
  2  3  2  0  0  0  0
  2  7  1  0  0  0  0
  3  4  1  0  0  0  0
  3  8  1  0  0  0  0
  4  6  2  0  0  0  0
  4  9  1  0  0  0  0
  5  6  1  0  0  0  0
  5  7  2  0  0  0  0
  5 10  1  0  0  0  0
M  END
$$$$
Clc1ccc2c(c1)C=NCc1n2cnn1
 OpenBabel07182308452D

 15 17  0  0  0  0  0  0  0  0999 V2000
    1.6500   -0.4448    0.0000 Cl  0  0  0  0  0  0  0  0  0  0  0  0
    4.8158   -1.5395    0.0000 N   0  0  0  0  0  0  0  0  0  0  0  0
    5.2283    0.2678    0.0000 N   0  0  0  0  0  0  0  0  0  0  0  0
    6.1244   -1.7758    0.0000 N   0  0  0  0  0  0  0  0  0  0  0  0
    5.7351   -2.4977    0.0000 N   0  0  0  0  0  0  0  0  0  0  0  0
    4.0726   -1.1816    0.0000 C   0  0  0  0  0  0  0  0  0  0  0  0
    3.8890   -0.3773    0.0000 C   0  0  0  0  0  0  0  0  0  0  0  0
    4.4033    0.2678    0.0000 C   0  0  0  0  0  0  0  0  0  0  0  0
    5.5592   -1.1816    0.0000 C   0  0  0  0  0  0  0  0  0  0  0  0
    5.7427   -0.3773    0.0000 C   0  0  0  0  0  0  0  0  0  0  0  0
    3.4517   -1.7757    0.0000 C   0  0  0  0  0  0  0  0  0  0  0  0
    3.0718   -0.1113    0.0000 C   0  0  0  0  0  0  0  0  0  0  0  0
    4.9280   -2.3519    0.0000 C   0  0  0  0  0  0  0  0  0  0  0  0
    2.6286   -1.5287    0.0000 C   0  0  0  0  0  0  0  0  0  0  0  0
    2.4374   -0.6909    0.0000 C   0  0  0  0  0  0  0  0  0  0  0  0
  1 15  1  0  0  0  0
  2  6  1  0  0  0  0
  2  9  1  0  0  0  0
  2 13  1  0  0  0  0
  3  8  2  0  0  0  0
  3 10  1  0  0  0  0
  4  5  1  0  0  0  0
  4  9  2  0  0  0  0
  5 13  2  0  0  0  0
  6  7  2  0  0  0  0
  6 11  1  0  0  0  0
  7  8  1  0  0  0  0
  7 12  1  0  0  0  0
  9 10  1  0  0  0  0
 11 14  2  0  0  0  0
 12 15  2  0  0  0  0
 14 15  1  0  0  0  0
M  END
$$$$
CC(C#N)C
 OpenBabel07182308452D

  5  4  0  0  0  0  0  0  0  0999 V2000
   -1.4289   -1.6222    0.0000 C   0  0  0  0  0  0  0  0  0  0  0  0
   -2.1435   -1.2097    0.0000 C   0  0  0  0  0  0  0  0  0  0  0  0
   -2.8581   -0.7972    0.0000 N   0  0  0  0  0  0  0  0  0  0  0  0
   -1.8414   -2.3368    0.0000 C   0  0  0  0  0  0  0  0  0  0  0  0
   -1.0166   -2.3368    0.0000 C   0  0  0  0  0  0  0  0  0  0  0  0
  1  2  1  0  0  0  0
  1  4  1  0  0  0  0
  2  3  3  0  0  0  0
  5  1  1  0  0  0  0
M  END
$$$$
Clc1cc(Cl)c2c(c1)c1ccccc1cc2
 OpenBabel07182308452D

 16 18  0  0  1  0  0  0  0  0999 V2000
    7.4502    1.8251    0.0000 Cl  0  0  0  0  0  0  0  0  0  0  0  0
    5.9997    4.3598    0.0000 Cl  0  0  0  0  0  0  0  0  0  0  0  0
    5.2753    0.5902    0.0000 C   0  0  0  0  0  0  0  0  0  0  0  0
    4.5608    1.0027    0.0000 C   0  0  0  0  0  0  0  0  0  0  0  0
    4.5608    1.8277    0.0000 C   0  0  0  0  0  0  0  0  0  0  0  0
    5.9897    1.0027    0.0000 C   0  0  0  0  0  0  0  0  0  0  0  0
    5.2753    2.2402    0.0000 C   0  0  0  0  0  0  0  0  0  0  0  0
    5.9897    1.8277    0.0000 C   0  0  0  0  0  0  0  0  0  0  0  0
    3.8233    0.5616    0.0000 C   0  0  0  0  0  0  0  0  0  0  0  0
    3.8233    2.2688    0.0000 C   0  0  0  0  0  0  0  0  0  0  0  0
    3.0758    1.8449    0.0000 C   0  0  0  0  0  0  0  0  0  0  0  0
    5.2621    3.0995    0.0000 C   0  0  0  0  0  0  0  0  0  0  0  0
    3.0758    0.9856    0.0000 C   0  0  0  0  0  0  0  0  0  0  0  0
    6.7405    2.2458    0.0000 C   0  0  0  0  0  0  0  0  0  0  0  0
    6.0029    3.5348    0.0000 C   0  0  0  0  0  0  0  0  0  0  0  0
    6.7472    3.1052    0.0000 C   0  0  0  0  0  0  0  0  0  0  0  0
  1 14  1  0  0  0  0
  2 15  1  0  0  0  0
  3  4  2  0  0  0  0
  3  6  1  0  0  0  0
  4  5  1  0  0  0  0
  4  9  1  0  0  0  0
  5  7  2  0  0  0  0
  5 10  1  0  0  0  0
  6  8  2  0  0  0  0
  7  8  1  0  0  0  0
  7 12  1  0  0  0  0
  8 14  1  0  0  0  0
  9 13  2  0  0  0  0
 10 11  2  0  0  0  0
 11 13  1  0  0  0  0
 12 15  2  0  0  0  0
 14 16  2  0  0  0  0
 15 16  1  0  0  0  0
M  END
$$$$
Cc1ccn2c(c1)nc1c2c2NC(=O)/C(=C\C=C\[C@H](C)[C@H](O)[C@@H](C)[C@H]([C@H]([C@@H]([C@@H](C/C=C/O[C@@]3(C(=O)c4c1c(c2O)c(O)c(c4O3)C)C)C)O)C)O)/C
 OpenBabel07182308452D

 57 62  0  0  1  0  0  0  0  0999 V2000
   19.8000   -6.6747    0.0000 C   0  0  1  0  0  0  0  0  0  0  0  0
   19.8000   -7.5409    0.0000 C   0  0  2  0  0  0  0  0  0  0  0  0
   21.2437   -7.4997    0.0000 O   0  0  0  0  0  0  0  0  0  0  0  0
   21.2437   -6.6747    0.0000 C   0  0  2  0  0  0  0  0  0  0  0  0
   20.5012   -6.2622    0.0000 C   0  0  1  0  0  0  0  0  0  0  0  0
   22.6462   -6.6747    0.0000 C   0  0  0  0  0  0  0  0  0  0  0  0
   21.9450   -6.2622    0.0000 C   0  0  2  0  0  0  0  0  0  0  0  0
   23.3886   -7.9534    0.0000 C   0  0  0  0  0  0  0  0  0  0  0  0
   24.0898   -7.5409    0.0000 C   0  0  0  0  0  0  0  0  0  0  0  0
   24.0898   -6.6747    0.0000 C   0  0  0  0  0  0  0  0  0  0  0  0
   23.3886   -6.2622    0.0000 C   0  0  0  0  0  0  0  0  0  0  0  0
   21.9450   -5.4372    0.0000 C   0  0  0  0  0  0  0  0  0  0  0  0
   20.5012   -5.4372    0.0000 C   0  0  0  0  0  0  0  0  0  0  0  0
   19.0988   -6.2622    0.0000 O   0  0  0  0  0  0  0  0  0  0  0  0
   24.7911   -7.9534    0.0000 C   0  0  0  0  0  0  0  0  0  0  0  0
   22.6874   -7.5409    0.0000 O   0  0  0  0  0  0  0  0  0  0  0  0
   23.3886   -8.9434    0.0000 N   0  0  0  0  0  0  0  0  0  0  0  0
   19.0988   -7.9534    0.0000 C   0  0  2  0  0  0  0  0  0  0  0  0
   18.3975   -7.5409    0.0000 O   0  0  0  0  0  0  0  0  0  0  0  0
   19.0988   -8.9434    0.0000 C   0  0  1  0  0  0  0  0  0  0  0  0
   22.6874   -9.3559    0.0000 C   0  0  0  0  0  0  0  0  0  0  0  0
   22.6874  -10.1809    0.0000 C   0  0  0  0  0  0  0  0  0  0  0  0
   21.9450   -8.9434    0.0000 C   0  0  0  0  0  0  0  0  0  0  0  0
   21.2437   -9.3559    0.0000 C   0  0  0  0  0  0  0  0  0  0  0  0
   21.2437  -10.1809    0.0000 C   0  0  0  0  0  0  0  0  0  0  0  0
   21.9450  -10.5933    0.0000 C   0  0  0  0  0  0  0  0  0  0  0  0
   20.5425   -8.9434    0.0000 C   0  0  0  0  0  0  0  0  0  0  0  0
   19.8000   -9.3559    0.0000 C   0  0  0  0  0  0  0  0  0  0  0  0
   19.8000  -10.1809    0.0000 C   0  0  0  0  0  0  0  0  0  0  0  0
   20.5425  -10.5933    0.0000 C   0  0  0  0  0  0  0  0  0  0  0  0
   21.9450   -8.1184    0.0000 O   0  0  0  0  0  0  0  0  0  0  0  0
   20.5425   -8.1184    0.0000 O   0  0  0  0  0  0  0  0  0  0  0  0
   19.0988   -6.8809    0.0000 C   0  0  0  0  0  0  0  0  0  0  0  0
   18.3975   -9.3559    0.0000 C   0  0  0  0  0  0  0  0  0  0  0  0
   18.3975  -10.1809    0.0000 C   0  0  0  0  0  0  0  0  0  0  0  0
   18.3975   -8.3659    0.0000 C   0  0  0  0  0  0  0  0  0  0  0  0
   17.6963  -10.5933    0.0000 C   0  0  0  0  0  0  0  0  0  0  0  0
   17.6963  -11.4183    0.0000 O   0  0  0  0  0  0  0  0  0  0  0  0
   19.0988  -10.5933    0.0000 O   0  0  0  0  0  0  0  0  0  0  0  0
   19.0988  -11.4183    0.0000 C   0  0  1  0  0  0  0  0  0  0  0  0
   20.5425  -11.4183    0.0000 C   0  0  0  0  0  0  0  0  0  0  0  0
   19.0988  -12.2433    0.0000 C   0  0  0  0  0  0  0  0  0  0  0  0
   19.8000   -8.5309    0.0000 C   0  0  0  0  0  0  0  0  0  0  0  0
   21.9450  -11.4183    0.0000 N   0  0  0  0  0  0  0  0  0  0  0  0
   23.3886  -11.4183    0.0000 C   0  0  0  0  0  0  0  0  0  0  0  0
   23.3886  -10.5933    0.0000 N   0  0  0  0  0  0  0  0  0  0  0  0
   21.2024  -11.8308    0.0000 O   0  0  0  0  0  0  0  0  0  0  0  0
   24.1360  -11.8498    0.0000 C   0  0  0  0  0  0  0  0  0  0  0  0
   24.8835  -11.4183    0.0000 C   0  0  0  0  0  0  0  0  0  0  0  0
   24.8835  -10.5933    0.0000 C   0  0  0  0  0  0  0  0  0  0  0  0
   24.1360  -10.1618    0.0000 C   0  0  0  0  0  0  0  0  0  0  0  0
   25.6496  -11.8604    0.0000 C   0  0  0  0  0  0  0  0  0  0  0  0
   20.4037   -7.9847    0.0000 H   0  0  0  0  0  0  0  0  0  0  0  0
   19.1067   -5.2922    0.0000 H   0  0  0  0  0  0  0  0  0  0  0  0
   24.2432   -9.4322    0.0000 H   0  0  0  0  0  0  0  0  0  0  0  0
   22.7565   -7.6499    0.0000 H   0  0  0  0  0  0  0  0  0  0  0  0
   21.3540   -7.6499    0.0000 H   0  0  0  0  0  0  0  0  0  0  0  0
  1  2  1  0  0  0  0
  1  5  1  0  0  0  0
  1 14  1  6  0  0  0
  2 18  1  0  0  0  0
  2 33  1  1  0  0  0
  3 53  1  0  0  0  0
  4  3  1  6  0  0  0
  4  5  1  0  0  0  0
  4  7  1  0  0  0  0
  5 13  1  6  0  0  0
  6  7  1  0  0  0  0
  6 11  2  0  0  0  0
  7 12  1  1  0  0  0
  8  9  1  0  0  0  0
  8 16  2  0  0  0  0
  8 17  1  0  0  0  0
  9 10  2  0  0  0  0
  9 15  1  0  0  0  0
 10 11  1  0  0  0  0
 14 54  1  0  0  0  0
 17 21  1  0  0  0  0
 17 55  1  0  0  0  0
 18 19  1  1  0  0  0
 18 20  1  0  0  0  0
 20 34  1  0  0  0  0
 20 36  1  6  0  0  0
 21 22  1  0  0  0  0
 21 23  2  0  0  0  0
 22 46  1  0  0  0  0
 23 24  1  0  0  0  0
 23 31  1  0  0  0  0
 24 25  1  0  0  0  0
 24 27  2  0  0  0  0
 25 26  1  0  0  0  0
 25 30  2  0  0  0  0
 26 22  2  0  0  0  0
 26 44  1  0  0  0  0
 27 28  1  0  0  0  0
 27 32  1  0  0  0  0
 28 29  2  0  0  0  0
 28 43  1  0  0  0  0
 29 30  1  0  0  0  0
 29 39  1  0  0  0  0
 30 41  1  0  0  0  0
 31 56  1  0  0  0  0
 32 57  1  0  0  0  0
 34 35  1  0  0  0  0
 35 37  2  0  0  0  0
 37 38  1  0  0  0  0
 38 40  1  0  0  0  0
 39 40  1  0  0  0  0
 40 41  1  0  0  0  0
 40 42  1  6  0  0  0
 44 45  2  0  0  0  0
 45 46  1  0  0  0  0
 45 48  1  0  0  0  0
 46 51  1  0  0  0  0
 47 41  2  0  0  0  0
 48 49  2  0  0  0  0
 49 50  1  0  0  0  0
 49 52  1  0  0  0  0
 50 51  2  0  0  0  0
M  END
$$$$
O=C1CCCCC1
 OpenBabel07182308452D

  7  7  0  0  1  0  0  0  0  0999 V2000
    1.6500   -0.1115    0.0000 O   0  0  0  0  0  0  0  0  0  0  0  0
    3.0790   -0.1115    0.0000 C   0  0  0  0  0  0  0  0  0  0  0  0
    3.7935   -0.5240    0.0000 C   0  0  0  0  0  0  0  0  0  0  0  0
    3.7935   -1.3491    0.0000 C   0  0  0  0  0  0  0  0  0  0  0  0
    3.0790   -1.7616    0.0000 C   0  0  0  0  0  0  0  0  0  0  0  0
    2.3645   -0.5240    0.0000 C   0  0  0  0  0  0  0  0  0  0  0  0
    2.3645   -1.3491    0.0000 C   0  0  0  0  0  0  0  0  0  0  0  0
  1  6  2  0  0  0  0
  2  3  1  0  0  0  0
  2  6  1  0  0  0  0
  3  4  1  0  0  0  0
  4  5  1  0  0  0  0
  5  7  1  0  0  0  0
  6  7  1  0  0  0  0
M  END
$$$$
CC1O[C@H]2[C@@H](O1)[C@@]1([C@@H](C2)[C@@H]2CCC3=CC(=O)C=C[C@@]3([C@H]2[C@H](C1)O)C)C
 OpenBabel07182308452D

 29 33  0  0  1  0  0  0  0  0999 V2000
   13.5340   -5.1807    0.0000 C   0  0  1  0  0  0  0  0  0  0  0  0
   12.7464   -5.4288    0.0000 C   0  0  2  0  0  0  0  0  0  0  0  0
   14.0121   -5.8531    0.0000 C   0  0  1  0  0  0  0  0  0  0  0  0
   14.0228   -4.5190    0.0000 O   0  0  0  0  0  0  0  0  0  0  0  0
   12.7392   -6.2485    0.0000 C   0  0  1  0  0  0  0  0  0  0  0  0
   12.0418   -5.0117    0.0000 C   0  0  0  0  0  0  0  0  0  0  0  0
   12.7283   -4.4364    0.0000 C   0  0  0  0  0  0  0  0  0  0  0  0
   13.5194   -6.5109    0.0000 C   0  0  0  0  0  0  0  0  0  0  0  0
   14.7923   -5.6049    0.0000 O   0  0  0  0  0  0  0  0  0  0  0  0
   14.8031   -4.7851    0.0000 C   0  0  3  0  0  0  0  0  0  0  0  0
   12.0274   -6.6584    0.0000 C   0  0  1  0  0  0  0  0  0  0  0  0
   11.3262   -5.4181    0.0000 C   0  0  1  0  0  0  0  0  0  0  0  0
   15.5293   -4.3537    0.0000 C   0  0  0  0  0  0  0  0  0  0  0  0
   11.3190   -6.2413    0.0000 C   0  0  2  0  0  0  0  0  0  0  0  0
   12.0274   -7.4853    0.0000 C   0  0  0  0  0  0  0  0  0  0  0  0
   10.4669   -4.7780    0.0000 O   0  0  0  0  0  0  0  0  0  0  0  0
   10.5963   -6.6477    0.0000 C   0  0  2  0  0  0  0  0  0  0  0  0
   11.3118   -7.8953    0.0000 C   0  0  0  0  0  0  0  0  0  0  0  0
   10.5928   -7.4780    0.0000 C   0  0  0  0  0  0  0  0  0  0  0  0
    9.8843   -6.2378    0.0000 C   0  0  0  0  0  0  0  0  0  0  0  0
   10.5891   -5.6517    0.0000 C   0  0  0  0  0  0  0  0  0  0  0  0
    9.8843   -7.8917    0.0000 C   0  0  0  0  0  0  0  0  0  0  0  0
    9.1688   -6.6477    0.0000 C   0  0  0  0  0  0  0  0  0  0  0  0
    9.1688   -7.4780    0.0000 C   0  0  0  0  0  0  0  0  0  0  0  0
    8.4498   -7.8917    0.0000 O   0  0  0  0  0  0  0  0  0  0  0  0
   12.7248   -7.1546    0.0000 H   0  0  0  0  0  0  0  0  0  0  0  0
   12.0129   -5.6517    0.0000 H   0  0  0  0  0  0  0  0  0  0  0  0
   11.3046   -7.1151    0.0000 H   0  0  0  0  0  0  0  0  0  0  0  0
   10.5798   -3.8146    0.0000 H   0  0  0  0  0  0  0  0  0  0  0  0
  1  2  1  6  0  0  0
  1  3  1  0  0  0  0
  1  4  1  0  0  0  0
  2  5  1  1  0  0  0
  2  6  1  0  0  0  0
  2  7  1  0  0  0  0
  3  8  1  6  0  0  0
  3  9  1  0  0  0  0
  4 10  1  0  0  0  0
  5 11  1  1  0  0  0
  5  8  1  0  0  0  0
  5 26  1  0  0  0  0
  6 12  1  0  0  0  0
  9 10  1  0  0  0  0
 10 13  1  0  0  0  0
 11 14  1  6  0  0  0
 11 15  1  0  0  0  0
 11 27  1  0  0  0  0
 12 16  1  0  0  0  0
 12 14  1  1  0  0  0
 14 17  1  1  0  0  0
 14 28  1  0  0  0  0
 15 18  1  0  0  0  0
 16 29  1  0  0  0  0
 17 19  1  0  0  0  0
 17 20  1  0  0  0  0
 17 21  1  1  0  0  0
 18 19  1  0  0  0  0
 19 22  2  0  0  0  0
 20 23  2  0  0  0  0
 22 24  1  0  0  0  0
 23 24  1  0  0  0  0
 24 25  2  0  0  0  0
M  END
$$$$
c1ccc2c(c1)Sc1ccccc1C=N2
 OpenBabel07182308452D

 15 17  0  0  0  0  0  0  0  0999 V2000
    4.0279   -4.2678    0.0000 S   0  0  0  0  0  0  0  0  0  0  0  0
    4.4403   -2.4607    0.0000 N   0  0  0  0  0  0  0  0  0  0  0  0
    3.6154   -2.4607    0.0000 C   0  0  0  0  0  0  0  0  0  0  0  0
    3.1012   -3.1056    0.0000 C   0  0  0  0  0  0  0  0  0  0  0  0
    3.2847   -3.9098    0.0000 C   0  0  0  0  0  0  0  0  0  0  0  0
    2.2841   -2.8397    0.0000 C   0  0  0  0  0  0  0  0  0  0  0  0
    4.9547   -3.1056    0.0000 C   0  0  0  0  0  0  0  0  0  0  0  0
    4.7711   -3.9099    0.0000 C   0  0  0  0  0  0  0  0  0  0  0  0
    2.6639   -4.5038    0.0000 C   0  0  0  0  0  0  0  0  0  0  0  0
    1.6497   -3.4193    0.0000 C   0  0  0  0  0  0  0  0  0  0  0  0
    1.8410   -4.2570    0.0000 C   0  0  0  0  0  0  0  0  0  0  0  0
    5.7717   -2.8397    0.0000 C   0  0  0  0  0  0  0  0  0  0  0  0
    5.3918   -4.5038    0.0000 C   0  0  0  0  0  0  0  0  0  0  0  0
    6.4060   -3.4193    0.0000 C   0  0  0  0  0  0  0  0  0  0  0  0
    6.2148   -4.2570    0.0000 C   0  0  0  0  0  0  0  0  0  0  0  0
  1  5  1  0  0  0  0
  1  8  1  0  0  0  0
  2  3  2  0  0  0  0
  2  7  1  0  0  0  0
  3  4  1  0  0  0  0
  4  5  1  0  0  0  0
  4  6  2  0  0  0  0
  5  9  2  0  0  0  0
  6 10  1  0  0  0  0
  7  8  1  0  0  0  0
  7 12  2  0  0  0  0
  8 13  2  0  0  0  0
  9 11  1  0  0  0  0
 10 11  2  0  0  0  0
 12 14  1  0  0  0  0
 13 15  1  0  0  0  0
 14 15  2  0  0  0  0
M  END
$$$$
C/C=C/C
 OpenBabel07182308452D

  4  3  0  0  1  0  0  0  0  0999 V2000
   10.5306    0.7145    0.0000 C   0  0  0  0  0  0  0  0  0  0  0  0
   12.1807   -0.7145    0.0000 C   0  0  0  0  0  0  0  0  0  0  0  0
   10.9431    0.0000    0.0000 C   0  0  0  0  0  0  0  0  0  0  0  0
   11.7681    0.0000    0.0000 C   0  0  0  0  0  0  0  0  0  0  0  0
  1  3  1  0  0  0  0
  2  4  1  0  0  0  0
  3  4  2  0  0  0  0
M  END
$$$$
CCCO
 OpenBabel07182308452D

  4  3  0  0  1  0  0  0  0  0999 V2000
    5.8950   -0.7144    0.0000 O   0  0  0  0  0  0  0  0  0  0  0  0
    4.6575    0.0000    0.0000 C   0  0  0  0  0  0  0  0  0  0  0  0
    3.8325    0.0000    0.0000 C   0  0  0  0  0  0  0  0  0  0  0  0
    5.4825    0.0000    0.0000 C   0  0  0  0  0  0  0  0  0  0  0  0
  2  3  1  0  0  0  0
  2  4  1  0  0  0  0
  4  1  1  0  0  0  0
M  END
$$$$
O[C@H]1C[C@@]2(O)[C@@H](O)[C@@H]3[C@]4(O)CO[C@@H]4C[C@@H]([C@]3(C(=O)[C@@H](C(=C1C)C2(C)C)O)C)O
 OpenBabel07182308452D

 31 34  0  0  1  0  0  0  0  0999 V2000
    0.8458   -1.1897    0.0000 C   0  0  1  0  0  0  0  0  0  0  0  0
    2.5189   -0.7993    0.0000 C   0  0  1  0  0  0  0  0  0  0  0  0
    3.1510    0.3068    0.0000 C   0  0  0  0  0  0  0  0  0  0  0  0
    1.2455    1.2363    0.0000 C   0  0  0  0  0  0  0  0  0  0  0  0
    0.2138    1.2363    0.0000 C   0  0  1  0  0  0  0  0  0  0  0  0
   -0.3625    0.6415    0.0000 C   0  0  0  0  0  0  0  0  0  0  0  0
   -1.0969    0.6415    0.0000 C   0  0  0  0  0  0  0  0  0  0  0  0
   -1.4686    0.0000    0.0000 C   0  0  2  0  0  0  0  0  0  0  0  0
   -1.0969   -0.6413    0.0000 C   0  0  0  0  0  0  0  0  0  0  0  0
   -1.4686    1.2735    0.0000 C   0  0  0  0  0  0  0  0  0  0  0  0
    3.1785   -1.2832    0.0000 C   0  0  0  0  0  0  0  0  0  0  0  0
    2.5138   -1.5603    0.0000 O   0  0  0  0  0  0  0  0  0  0  0  0
    1.4552    1.9708    0.0000 O   0  0  0  0  0  0  0  0  0  0  0  0
    0.8008   -2.0693    0.0000 O   0  0  0  0  0  0  0  0  0  0  0  0
   -0.1850    2.1000    0.0000 O   0  0  0  0  0  0  0  0  0  0  0  0
    1.8776   -0.4368    0.0000 C   0  0  2  0  0  0  0  0  0  0  0  0
    1.8776   -1.2618    0.0000 H   0  0  0  0  0  0  0  0  0  0  0  0
    1.8776    0.3068    0.0000 C   0  0  2  0  0  0  0  0  0  0  0  0
    1.8776    1.1318    0.0000 C   0  0  0  0  0  0  0  0  0  0  0  0
   -0.3625   -0.6413    0.0000 C   0  0  1  0  0  0  0  0  0  0  0  0
   -0.3625   -1.4663    0.0000 O   0  0  0  0  0  0  0  0  0  0  0  0
    0.7145    0.4125    0.0000 C   0  0  0  0  0  0  0  0  0  0  0  0
    0.7145   -0.4125    0.0000 C   0  0  0  0  0  0  0  0  0  0  0  0
    2.5189    0.6693    0.0000 C   0  0  1  0  0  0  0  0  0  0  0  0
    2.5189    1.4943    0.0000 O   0  0  0  0  0  0  0  0  0  0  0  0
    3.1510   -0.4368    0.0000 C   0  0  1  0  0  0  0  0  0  0  0  0
    3.8655   -0.8493    0.0000 O   0  0  0  0  0  0  0  0  0  0  0  0
    0.0000    0.0000    0.0000 C   0  0  0  0  0  0  0  0  0  0  0  0
   -2.1161   -0.3725    0.0000 O   0  0  0  0  0  0  0  0  0  0  0  0
   -1.2025   -1.9513    0.0000 H   0  0  0  0  0  0  0  0  0  0  0  0
    3.3589    1.9793    0.0000 H   0  0  0  0  0  0  0  0  0  0  0  0
  1 20  1  6  0  0  0
  1 14  1  0  0  0  0
  2 16  1  1  0  0  0
  2 11  1  0  0  0  0
  2 12  1  0  0  0  0
  4 18  1  0  0  0  0
  4  5  1  0  0  0  0
  5  6  1  0  0  0  0
  5 15  1  1  0  0  0
  6  7  2  0  0  0  0
  7 10  1  0  0  0  0
  8  7  1  0  0  0  0
  8 29  1  6  0  0  0
  9  8  1  0  0  0  0
 11 27  1  0  0  0  0
 13  4  2  0  0  0  0
 16  1  1  0  0  0  0
 16 18  1  6  0  0  0
 16 17  1  0  0  0  0
 18 19  1  1  0  0  0
 20 28  1  0  0  0  0
 20  9  1  0  0  0  0
 20 21  1  1  0  0  0
 21 30  1  0  0  0  0
 24  3  1  0  0  0  0
 24 18  1  1  0  0  0
 24 25  1  0  0  0  0
 25 31  1  0  0  0  0
 26  3  1  0  0  0  0
 26  2  1  1  0  0  0
 26 27  1  0  0  0  0
 28  6  1  0  0  0  0
 28 22  1  0  0  0  0
 28 23  1  0  0  0  0
M  END
$$$$
O=C1COC(=N1)N
 OpenBabel07182308452D

  9  9  0  0  1  0  0  0  0  0999 V2000
    2.3888    0.5203    0.0000 O   0  0  0  0  0  0  0  0  0  0  0  0
    4.5083    0.2653    0.0000 O   0  0  0  0  0  0  0  0  0  0  0  0
    3.4687    1.3049    0.0000 N   0  0  0  0  0  0  0  0  0  0  0  0
    2.1587    1.9724    0.0000 N   0  0  0  0  0  0  0  0  0  0  0  0
    3.0562    0.0354    0.0000 C   0  0  0  0  0  0  0  0  0  0  0  0
    3.7236    0.5203    0.0000 C   0  0  0  0  0  0  0  0  0  0  0  0
    2.6437    1.3049    0.0000 C   0  0  0  0  0  0  0  0  0  0  0  0
    2.5591    2.8718    0.0000 H   0  0  0  0  0  0  0  0  0  0  0  0
    1.1796    1.8695    0.0000 H   0  0  0  0  0  0  0  0  0  0  0  0
  1  5  1  0  0  0  0
  1  7  1  0  0  0  0
  2  6  2  0  0  0  0
  3  6  1  0  0  0  0
  3  7  2  0  0  0  0
  4  7  1  0  0  0  0
  4  8  1  0  0  0  0
  4  9  1  0  0  0  0
  5  6  1  0  0  0  0
M  END
$$$$
O=C1C=C[C@]2(C(=C1)CC[C@@H]1[C@]2(F)[C@@H](O)C[C@]2([C@H]1C[C@H]([C@H]2O)C)C)C
 OpenBabel07182308452D

 28 31  0  0  0  0  0  0  0  0999 V2000
   -1.7616   -0.7461    0.0000 C   0  0  0  0  0  0  0  0  0  0  0  0
   -2.4761   -1.1586    0.0000 C   0  0  0  0  0  0  0  0  0  0  0  0
   -1.7616   -2.3962    0.0000 C   0  0  0  0  0  0  0  0  0  0  0  0
   -1.0472   -1.9837    0.0000 C   0  0  0  0  0  0  0  0  0  0  0  0
   -0.3327   -2.3962    0.0000 C   0  0  0  0  0  0  0  0  0  0  0  0
    0.3816   -1.9837    0.0000 C   0  0  0  0  0  0  0  0  0  0  0  0
    0.3816    0.4913    0.0000 C   0  0  0  0  0  0  0  0  0  0  0  0
    1.8807   -1.0010    0.0000 C   0  0  0  0  0  0  0  0  0  0  0  0
   -2.4761   -1.9837    0.0000 C   0  0  0  0  0  0  0  0  0  0  0  0
   -3.1906   -2.3962    0.0000 O   0  0  0  0  0  0  0  0  0  0  0  0
    1.8807    0.3337    0.0000 C   0  0  2  0  0  0  0  0  0  0  0  0
    2.5952    0.7462    0.0000 O   0  0  0  0  0  0  0  0  0  0  0  0
    2.3656   -0.3336    0.0000 C   0  0  2  0  0  0  0  0  0  0  0  0
    3.1906   -0.3336    0.0000 C   0  0  0  0  0  0  0  0  0  0  0  0
   -1.0472   -1.1586    0.0000 C   0  0  2  0  0  0  0  0  0  0  0  0
   -1.0472   -0.3336    0.0000 C   0  0  0  0  0  0  0  0  0  0  0  0
    1.0961    0.0788    0.0000 C   0  0  1  0  0  0  0  0  0  0  0  0
    1.0961    0.9038    0.0000 C   0  0  0  0  0  0  0  0  0  0  0  0
    1.0961   -0.7461    0.0000 C   0  0  2  0  0  0  0  0  0  0  0  0
    1.0961   -1.5711    0.0000 H   0  0  0  0  0  0  0  0  0  0  0  0
   -0.3327   -0.7461    0.0000 C   0  0  1  0  0  0  0  0  0  0  0  0
   -0.3327   -1.5711    0.0000 F   0  0  0  0  0  0  0  0  0  0  0  0
   -0.3327    0.0788    0.0000 C   0  0  1  0  0  0  0  0  0  0  0  0
   -1.0472    0.4913    0.0000 O   0  0  0  0  0  0  0  0  0  0  0  0
    0.3816   -1.1586    0.0000 C   0  0  1  0  0  0  0  0  0  0  0  0
    0.3816   -0.3336    0.0000 H   0  0  0  0  0  0  0  0  0  0  0  0
    3.4352    0.2612    0.0000 H   0  0  0  0  0  0  0  0  0  0  0  0
   -1.0472    1.4613    0.0000 H   0  0  0  0  0  0  0  0  0  0  0  0
  1  2  2  0  0  0  0
  1 15  1  0  0  0  0
  2  9  1  0  0  0  0
  3  4  2  0  0  0  0
  4  5  1  0  0  0  0
  5  6  1  0  0  0  0
  6 25  1  0  0  0  0
  7 23  1  0  0  0  0
  7 17  1  0  0  0  0
  8 13  1  0  0  0  0
  9  3  1  0  0  0  0
  9 10  2  0  0  0  0
 11 17  1  6  0  0  0
 11 13  1  0  0  0  0
 11 12  1  0  0  0  0
 12 27  1  0  0  0  0
 13 14  1  6  0  0  0
 15 21  1  6  0  0  0
 15  4  1  0  0  0  0
 15 16  1  0  0  0  0
 17 19  1  1  0  0  0
 17 18  1  0  0  0  0
 19 25  1  1  0  0  0
 19  8  1  0  0  0  0
 19 20  1  0  0  0  0
 21 25  1  1  0  0  0
 21 22  1  0  0  0  0
 23 21  1  1  0  0  0
 23 24  1  0  0  0  0
 24 28  1  0  0  0  0
 25 26  1  1  0  0  0
M  END
$$$$
C/C=C/1\c2cc(Cl)ccc2Sc2c1cccc2
 OpenBabel07182308452D

 17 19  0  0  0  0  0  0  0  0999 V2000
   -0.3572    0.4125    0.0000 C   0  0  0  0  0  0  0  0  0  0  0  0
    0.3572    0.0000    0.0000 C   0  0  0  0  0  0  0  0  0  0  0  0
    0.3572   -0.8250    0.0000 C   0  0  0  0  0  0  0  0  0  0  0  0
    1.0717   -1.2375    0.0000 C   0  0  0  0  0  0  0  0  0  0  0  0
    1.7861   -0.8250    0.0000 C   0  0  0  0  0  0  0  0  0  0  0  0
    2.5006   -1.2375    0.0000 C   0  0  0  0  0  0  0  0  0  0  0  0
    2.5006   -2.0625    0.0000 C   0  0  0  0  0  0  0  0  0  0  0  0
    1.7861   -2.4750    0.0000 C   0  0  0  0  0  0  0  0  0  0  0  0
    1.0717   -2.0625    0.0000 C   0  0  0  0  0  0  0  0  0  0  0  0
    0.3572   -2.4750    0.0000 S   0  0  0  0  0  0  0  0  0  0  0  0
   -0.3572   -2.0625    0.0000 C   0  0  0  0  0  0  0  0  0  0  0  0
   -1.0717   -2.4750    0.0000 C   0  0  0  0  0  0  0  0  0  0  0  0
   -1.7861   -2.0625    0.0000 C   0  0  0  0  0  0  0  0  0  0  0  0
   -1.7861   -1.2375    0.0000 C   0  0  0  0  0  0  0  0  0  0  0  0
   -2.5006   -0.8250    0.0000 Cl  0  0  0  0  0  0  0  0  0  0  0  0
   -1.0717   -0.8250    0.0000 C   0  0  0  0  0  0  0  0  0  0  0  0
   -0.3572   -1.2375    0.0000 C   0  0  0  0  0  0  0  0  0  0  0  0
  1  2  1  0  0  0  0
  2  3  2  0  0  0  0
  3  4  1  0  0  0  0
  3 17  1  0  0  0  0
  4  5  2  0  0  0  0
  4  9  1  0  0  0  0
  5  6  1  0  0  0  0
  6  7  2  0  0  0  0
  7  8  1  0  0  0  0
  8  9  2  0  0  0  0
  9 10  1  0  0  0  0
 10 11  1  0  0  0  0
 11 12  2  0  0  0  0
 11 17  1  0  0  0  0
 12 13  1  0  0  0  0
 13 14  2  0  0  0  0
 14 15  1  0  0  0  0
 14 16  1  0  0  0  0
 16 17  2  0  0  0  0
M  END
$$$$
C/C=C/1\O[C@@H]2[C@H](C1)C[C@@H](C2)O
 OpenBabel07182308452D

 14 15  0  0  0  0  0  0  0  0999 V2000
   -2.0730    0.5407    0.0000 O   0  0  0  0  0  0  0  0  0  0  0  0
   -1.4051    1.0249    0.0000 C   0  0  0  0  0  0  0  0  0  0  0  0
   -1.8188   -0.2441    0.0000 C   0  0  2  0  0  0  0  0  0  0  0  0
   -0.7382    0.5395    0.0000 C   0  0  0  0  0  0  0  0  0  0  0  0
   -0.9937   -0.2449    0.0000 C   0  0  2  0  0  0  0  0  0  0  0  0
   -2.0744   -1.0287    0.0000 C   0  0  0  0  0  0  0  0  0  0  0  0
   -1.4073   -1.5142    0.0000 C   0  0  2  0  0  0  0  0  0  0  0  0
   -0.7393   -1.0298    0.0000 C   0  0  0  0  0  0  0  0  0  0  0  0
   -1.4045    1.8500    0.0000 C   0  0  0  0  0  0  0  0  0  0  0  0
   -2.1186    2.2631    0.0000 C   0  0  0  0  0  0  0  0  0  0  0  0
   -1.4056   -2.2657    0.0000 O   0  0  0  0  0  0  0  0  0  0  0  0
   -2.5842   -0.2464    0.0000 H   0  0  0  0  0  0  0  0  0  0  0  0
   -0.2034   -0.2464    0.0000 H   0  0  0  0  0  0  0  0  0  0  0  0
   -2.2445   -2.7526    0.0000 H   0  0  0  0  0  0  0  0  0  0  0  0
  2  1  1  0  0  0  0
  3  1  1  0  0  0  0
  3  5  1  1  0  0  0
  3 12  1  0  0  0  0
  4  2  1  0  0  0  0
  5  4  1  0  0  0  0
  5 13  1  1  0  0  0
  6  3  1  0  0  0  0
  7  6  1  0  0  0  0
  7 11  1  6  0  0  0
  8  5  1  0  0  0  0
  8  7  1  0  0  0  0
  9  2  2  0  0  0  0
 10  9  1  0  0  0  0
 11 14  1  0  0  0  0
M  END
$$$$
Cc1ccc(cc1)C
 OpenBabel07182308452D

  8  8  0  0  0  0  0  0  0  0999 V2000
    3.0791   -1.6995    0.0000 C   0  0  0  0  0  0  0  0  0  0  0  0
    2.3645   -2.1120    0.0000 C   0  0  0  0  0  0  0  0  0  0  0  0
    3.7935   -2.1120    0.0000 C   0  0  0  0  0  0  0  0  0  0  0  0
    3.7935   -2.9371    0.0000 C   0  0  0  0  0  0  0  0  0  0  0  0
    2.3645   -2.9371    0.0000 C   0  0  0  0  0  0  0  0  0  0  0  0
    3.0791   -3.3496    0.0000 C   0  0  0  0  0  0  0  0  0  0  0  0
    1.6500   -1.6995    0.0000 C   0  0  0  0  0  0  0  0  0  0  0  0
    4.5080   -3.3496    0.0000 C   0  0  0  0  0  0  0  0  0  0  0  0
  1  2  2  0  0  0  0
  1  3  1  0  0  0  0
  2  5  1  0  0  0  0
  2  7  1  0  0  0  0
  3  4  2  0  0  0  0
  4  6  1  0  0  0  0
  4  8  1  0  0  0  0
  5  6  2  0  0  0  0
M  END
$$$$
Clc1ccc2c(c1)N(C)c1ccccc1CC2
 OpenBabel07182308452D

 17 19  0  0  0  0  0  0  0  0999 V2000
    1.5842    0.1860    0.0000 Cl  0  0  0  0  0  0  0  0  0  0  0  0
    4.2627    0.7166    0.0000 N   0  0  0  0  0  0  0  0  0  0  0  0
    4.2627   -0.0755    0.0000 C   0  0  0  0  0  0  0  0  0  0  0  0
    3.5491    1.0603    0.0000 C   0  0  0  0  0  0  0  0  0  0  0  0
    4.9763    1.0603    0.0000 C   0  0  0  0  0  0  0  0  0  0  0  0
    3.8667    2.4517    0.0000 C   0  0  0  0  0  0  0  0  0  0  0  0
    4.6588    2.4517    0.0000 C   0  0  0  0  0  0  0  0  0  0  0  0
    3.3729    1.8325    0.0000 C   0  0  0  0  0  0  0  0  0  0  0  0
    5.1526    1.8325    0.0000 C   0  0  0  0  0  0  0  0  0  0  0  0
    2.9530    0.4898    0.0000 C   0  0  0  0  0  0  0  0  0  0  0  0
    5.5725    0.4898    0.0000 C   0  0  0  0  0  0  0  0  0  0  0  0
    2.5884    2.0878    0.0000 C   0  0  0  0  0  0  0  0  0  0  0  0
    5.9373    2.0878    0.0000 C   0  0  0  0  0  0  0  0  0  0  0  0
    2.1627    0.7270    0.0000 C   0  0  0  0  0  0  0  0  0  0  0  0
    6.3627    0.7269    0.0000 C   0  0  0  0  0  0  0  0  0  0  0  0
    1.9792    1.5314    0.0000 C   0  0  0  0  0  0  0  0  0  0  0  0
    6.5464    1.5313    0.0000 C   0  0  0  0  0  0  0  0  0  0  0  0
  1 14  1  0  0  0  0
  2  3  1  0  0  0  0
  2  4  1  0  0  0  0
  2  5  1  0  0  0  0
  4  8  2  0  0  0  0
  4 10  1  0  0  0  0
  5  9  1  0  0  0  0
  5 11  2  0  0  0  0
  6  7  1  0  0  0  0
  6  8  1  0  0  0  0
  7  9  1  0  0  0  0
  8 12  1  0  0  0  0
  9 13  2  0  0  0  0
 10 14  2  0  0  0  0
 11 15  1  0  0  0  0
 12 16  2  0  0  0  0
 13 17  1  0  0  0  0
 14 16  1  0  0  0  0
 15 17  2  0  0  0  0
M  END
$$$$
Clc1cc(Cl)c2c(c1O)nccc2
 OpenBabel07182308452D

 14 15  0  0  0  0  0  0  0  0999 V2000
    3.0786    1.7777    0.0000 Cl  0  0  0  0  0  0  0  0  0  0  0  0
    1.6498   -0.6970    0.0000 Cl  0  0  0  0  0  0  0  0  0  0  0  0
    3.0786   -1.5219    0.0000 O   0  0  0  0  0  0  0  0  0  0  0  0
    4.5303   -0.7257    0.0000 N   0  0  0  0  0  0  0  0  0  0  0  0
    3.7929    0.5403    0.0000 C   0  0  0  0  0  0  0  0  0  0  0  0
    3.7929   -0.2846    0.0000 C   0  0  0  0  0  0  0  0  0  0  0  0
    3.0786   -0.6970    0.0000 C   0  0  0  0  0  0  0  0  0  0  0  0
    3.0786    0.9528    0.0000 C   0  0  0  0  0  0  0  0  0  0  0  0
    4.5303    0.9814    0.0000 C   0  0  0  0  0  0  0  0  0  0  0  0
    2.3641   -0.2846    0.0000 C   0  0  0  0  0  0  0  0  0  0  0  0
    2.3641    0.5403    0.0000 C   0  0  0  0  0  0  0  0  0  0  0  0
    5.2777    0.5574    0.0000 C   0  0  0  0  0  0  0  0  0  0  0  0
    5.2777   -0.3018    0.0000 C   0  0  0  0  0  0  0  0  0  0  0  0
    2.2671   -1.9904    0.0000 H   0  0  0  0  0  0  0  0  0  0  0  0
  1  8  1  0  0  0  0
  2 10  1  0  0  0  0
  3  7  1  0  0  0  0
  3 14  1  0  0  0  0
  4  6  1  0  0  0  0
  4 13  2  0  0  0  0
  5  6  2  0  0  0  0
  5  8  1  0  0  0  0
  5  9  1  0  0  0  0
  6  7  1  0  0  0  0
  7 10  2  0  0  0  0
  8 11  2  0  0  0  0
  9 12  2  0  0  0  0
 10 11  1  0  0  0  0
 12 13  1  0  0  0  0
M  END
$$$$
Ic1cc(I)c(c(c1)I)N
 OpenBabel07182308452D

 10 10  0  0  0  0  0  0  0  0999 V2000
   -2.1433   -0.6174    0.0000 C   0  0  0  0  0  0  0  0  0  0  0  0
   -2.8574   -1.0305    0.0000 C   0  0  0  0  0  0  0  0  0  0  0  0
   -3.5715   -0.6174    0.0000 C   0  0  0  0  0  0  0  0  0  0  0  0
   -3.5715    0.2089    0.0000 C   0  0  0  0  0  0  0  0  0  0  0  0
   -2.8574    0.6176    0.0000 C   0  0  0  0  0  0  0  0  0  0  0  0
   -2.1433    0.2089    0.0000 C   0  0  0  0  0  0  0  0  0  0  0  0
   -1.4292    0.6176    0.0000 I   0  0  0  0  0  0  0  0  0  0  0  0
   -4.2856    0.6176    0.0000 I   0  0  0  0  0  0  0  0  0  0  0  0
   -2.8574   -1.8569    0.0000 I   0  0  0  0  0  0  0  0  0  0  0  0
   -1.4292   -1.0305    0.0000 N   0  0  0  0  0  0  0  0  0  0  0  0
  1  2  1  0  0  0  0
  1  6  2  0  0  0  0
  1 10  1  0  0  0  0
  2  3  2  0  0  0  0
  2  9  1  0  0  0  0
  3  4  1  0  0  0  0
  4  8  1  0  0  0  0
  5  4  2  0  0  0  0
  6  5  1  0  0  0  0
  6  7  1  0  0  0  0
M  END
$$$$
O=C1N(C)C(=O)C(c2c1cccc2)(C)C
 OpenBabel07182308452D

 15 16  0  0  0  0  0  0  0  0999 V2000
    6.6514   -3.7678    0.0000 O   0  0  0  0  0  0  0  0  0  0  0  0
    8.0803   -1.2928    0.0000 O   0  0  0  0  0  0  0  0  0  0  0  0
    7.3658   -2.5303    0.0000 N   0  0  0  0  0  0  0  0  0  0  0  0
    8.0803   -3.7678    0.0000 C   0  0  0  0  0  0  0  0  0  0  0  0
    8.7948   -3.3553    0.0000 C   0  0  0  0  0  0  0  0  0  0  0  0
    7.3658   -3.3553    0.0000 C   0  0  0  0  0  0  0  0  0  0  0  0
    8.7948   -2.5303    0.0000 C   0  0  0  0  0  0  0  0  0  0  0  0
    7.6678   -4.4823    0.0000 C   0  0  0  0  0  0  0  0  0  0  0  0
    8.4928   -4.4823    0.0000 C   0  0  0  0  0  0  0  0  0  0  0  0
    6.6514   -2.1178    0.0000 C   0  0  0  0  0  0  0  0  0  0  0  0
    8.0803   -2.1178    0.0000 C   0  0  0  0  0  0  0  0  0  0  0  0
    9.5323   -3.7964    0.0000 C   0  0  0  0  0  0  0  0  0  0  0  0
    9.5323   -2.0892    0.0000 C   0  0  0  0  0  0  0  0  0  0  0  0
   10.2798   -3.3725    0.0000 C   0  0  0  0  0  0  0  0  0  0  0  0
   10.2798   -2.5131    0.0000 C   0  0  0  0  0  0  0  0  0  0  0  0
  1  6  2  0  0  0  0
  2 11  2  0  0  0  0
  3  6  1  0  0  0  0
  3 10  1  0  0  0  0
  3 11  1  0  0  0  0
  4  5  1  0  0  0  0
  4  6  1  0  0  0  0
  4  8  1  0  0  0  0
  4  9  1  0  0  0  0
  5  7  2  0  0  0  0
  5 12  1  0  0  0  0
  7 11  1  0  0  0  0
  7 13  1  0  0  0  0
 12 14  2  0  0  0  0
 13 15  2  0  0  0  0
 14 15  1  0  0  0  0
M  END
$$$$
Nc1c(C)cccc1Cl
 OpenBabel07182308452D

 10 10  0  0  0  0  0  0  0  0999 V2000
    2.2082   -5.4426    0.0000 Cl  0  0  0  0  0  0  0  0  0  0  0  0
    2.8794   -3.9353    0.0000 N   0  0  0  0  0  0  0  0  0  0  0  0
    3.3643   -4.6027    0.0000 C   0  0  0  0  0  0  0  0  0  0  0  0
    4.1848   -4.5165    0.0000 C   0  0  0  0  0  0  0  0  0  0  0  0
    3.0287   -5.3564    0.0000 C   0  0  0  0  0  0  0  0  0  0  0  0
    4.6698   -5.1839    0.0000 C   0  0  0  0  0  0  0  0  0  0  0  0
    4.5204   -3.7628    0.0000 C   0  0  0  0  0  0  0  0  0  0  0  0
    3.5137   -6.0239    0.0000 C   0  0  0  0  0  0  0  0  0  0  0  0
    4.3342   -5.9377    0.0000 C   0  0  0  0  0  0  0  0  0  0  0  0
    1.9003   -4.0382    0.0000 H   0  0  0  0  0  0  0  0  0  0  0  0
  1  5  1  0  0  0  0
  2  3  1  0  0  0  0
  2 10  1  0  0  0  0
  3  4  2  0  0  0  0
  3  5  1  0  0  0  0
  4  6  1  0  0  0  0
  4  7  1  0  0  0  0
  5  8  2  0  0  0  0
  6  9  2  0  0  0  0
  8  9  1  0  0  0  0
M  END
$$$$
C[C@H]1C[C@@H](O)[C@]2(C)[C@H](C)CC[C@]3([C@H]([C@@H]1O)C)[C@H]2C(=O)CC3
 OpenBabel07182308452D

 23 25  0  0  0  0  0  0  0  0999 V2000
    2.9308   -1.0011    0.0000 C   0  0  2  0  0  0  0  0  0  0  0  0
    2.8906   -0.1767    0.0000 C   0  0  2  0  0  0  0  0  0  0  0  0
    2.2793    0.3736    0.0000 C   0  0  2  0  0  0  0  0  0  0  0  0
    1.4551    0.3275    0.0000 C   0  0  1  0  0  0  0  0  0  0  0  0
    2.3774   -1.6097    0.0000 C   0  0  2  0  0  0  0  0  0  0  0  0
    0.9420   -1.1053    0.0000 C   0  0  2  0  0  0  0  0  0  0  0  0
    1.5533   -1.6557    0.0000 C   0  0  1  0  0  0  0  0  0  0  0  0
    0.9017   -0.2809    0.0000 C   0  0  0  0  0  0  0  0  0  0  0  0
    3.6638    0.1108    0.0000 C   0  0  0  0  0  0  0  0  0  0  0  0
    3.7219   -1.2214    0.0000 C   0  0  0  0  0  0  0  0  0  0  0  0
    2.2769   -1.0367    0.0000 C   0  0  0  0  0  0  0  0  0  0  0  0
    0.9047    0.9388    0.0000 O   0  0  0  0  0  0  0  0  0  0  0  0
    1.7276   -0.3317    0.0000 C   0  0  1  0  0  0  0  0  0  0  0  0
    4.1800   -0.5328    0.0000 C   0  0  0  0  0  0  0  0  0  0  0  0
    2.3644   -0.4863    0.0000 C   0  0  0  0  0  0  0  0  0  0  0  0
    3.8277    0.9137    0.0000 O   0  0  0  0  0  0  0  0  0  0  0  0
    1.2788   -2.4261    0.0000 O   0  0  0  0  0  0  0  0  0  0  0  0
    2.2738    1.2322    0.0000 C   0  0  0  0  0  0  0  0  0  0  0  0
    0.3884   -1.7138    0.0000 C   0  0  0  0  0  0  0  0  0  0  0  0
    2.6245   -2.3968    0.0000 C   0  0  0  0  0  0  0  0  0  0  0  0
    1.6708   -0.9747    0.0000 C   0  0  0  0  0  0  0  0  0  0  0  0
    3.0705    0.6851    0.0000 H   0  0  0  0  0  0  0  0  0  0  0  0
    0.3247   -2.6010    0.0000 H   0  0  0  0  0  0  0  0  0  0  0  0
  1  2  1  1  0  0  0
  1 10  1  0  0  0  0
  1 11  1  0  0  0  0
  2  3  1  6  0  0  0
  2  9  1  0  0  0  0
  2 22  1  0  0  0  0
  3 18  1  6  0  0  0
  4  3  1  1  0  0  0
  4 12  1  0  0  0  0
  4  8  1  0  0  0  0
  5  1  1  1  0  0  0
  5  7  1  0  0  0  0
  5 20  1  0  0  0  0
  6  8  1  0  0  0  0
  6 19  1  1  0  0  0
  7  6  1  0  0  0  0
  7 17  1  6  0  0  0
 13  3  1  1  0  0  0
 13 21  1  0  0  0  0
 13 15  1  0  0  0  0
 14 10  1  0  0  0  0
 14  9  1  0  0  0  0
 15 11  1  0  0  0  0
 16  9  2  0  0  0  0
 17 23  1  0  0  0  0
M  END
$$$$
S[C@@H]1C[C@H]2CC[C@@H](C1)N2C
 OpenBabel07182308452D

 10 11  0  0  0  0  0  0  0  0999 V2000
   -2.8381    1.3168    0.0000 N   0  0  0  0  0  0  0  0  0  0  0  0
   -3.4156    0.2491    0.0000 C   0  0  2  0  0  0  0  0  0  0  0  0
   -3.4198    2.4261    0.0000 C   0  0  1  0  0  0  0  0  0  0  0  0
   -2.4766    2.2183    0.0000 C   0  0  0  0  0  0  0  0  0  0  0  0
   -2.4685    0.4735    0.0000 C   0  0  0  0  0  0  0  0  0  0  0  0
   -2.0613    1.3459    0.0000 C   0  0  2  0  0  0  0  0  0  0  0  0
   -4.1800    1.8154    0.0000 C   0  0  0  0  0  0  0  0  0  0  0  0
   -4.1800    0.8557    0.0000 C   0  0  0  0  0  0  0  0  0  0  0  0
   -1.2388    1.3501    0.0000 S   0  0  0  0  0  0  0  0  0  0  0  0
   -3.5971    1.3071    0.0000 C   0  0  0  0  0  0  0  0  0  0  0  0
  2  1  1  0  0  0  0
  2  5  1  6  0  0  0
  3  4  1  6  0  0  0
  3  1  1  0  0  0  0
  4  6  1  0  0  0  0
  5  6  1  0  0  0  0
  6  9  1  1  0  0  0
  7  3  1  0  0  0  0
  7  8  1  0  0  0  0
  8  2  1  0  0  0  0
 10  1  1  0  0  0  0
M  END
$$$$
CS(=O)(=O)C
 OpenBabel07182308452D

  5  4  0  0  0  0  0  0  0  0999 V2000
    2.4037   -1.9531    0.0000 S   0  0  0  0  0  0  0  0  0  0  0  0
    3.1574   -2.2886    0.0000 O   0  0  0  0  0  0  0  0  0  0  0  0
    1.6500   -1.6174    0.0000 O   0  0  0  0  0  0  0  0  0  0  0  0
    2.7393   -1.1993    0.0000 C   0  0  0  0  0  0  0  0  0  0  0  0
    2.0682   -2.7067    0.0000 C   0  0  0  0  0  0  0  0  0  0  0  0
  1  2  2  0  0  0  0
  1  3  2  0  0  0  0
  1  4  1  0  0  0  0
  1  5  1  0  0  0  0
M  END
$$$$
Oc1ccccc1Cl
 OpenBabel07182308452D

  8  8  0  0  0  0  0  0  0  0999 V2000
   10.2164   -1.8725    0.0000 Cl  0  0  0  0  0  0  0  0  0  0  0  0
   11.6548   -1.0640    0.0000 O   0  0  0  0  0  0  0  0  0  0  0  0
    9.5257    0.1983    0.0000 C   0  0  0  0  0  0  0  0  0  0  0  0
    9.5163   -0.6267    0.0000 C   0  0  0  0  0  0  0  0  0  0  0  0
   10.2450    0.6024    0.0000 C   0  0  0  0  0  0  0  0  0  0  0  0
   10.9451   -0.6433    0.0000 C   0  0  0  0  0  0  0  0  0  0  0  0
   10.2259   -1.0474    0.0000 C   0  0  0  0  0  0  0  0  0  0  0  0
   10.9547    0.1818    0.0000 C   0  0  0  0  0  0  0  0  0  0  0  0
  1  7  1  0  0  0  0
  2  6  1  0  0  0  0
  3  4  2  0  0  0  0
  3  5  1  0  0  0  0
  4  7  1  0  0  0  0
  5  8  2  0  0  0  0
  6  7  2  0  0  0  0
  6  8  1  0  0  0  0
M  END
$$$$
Cc1cccc(c1)F
 OpenBabel07182308452D

  8  8  0  0  0  0  0  0  0  0999 V2000
   13.7743   -3.1512    0.0000 F   0  0  0  0  0  0  0  0  0  0  0  0
   12.3740   -0.6598    0.0000 C   0  0  0  0  0  0  0  0  0  0  0  0
   13.0836   -1.0805    0.0000 C   0  0  0  0  0  0  0  0  0  0  0  0
   13.0741   -1.9055    0.0000 C   0  0  0  0  0  0  0  0  0  0  0  0
   13.8029   -0.6763    0.0000 C   0  0  0  0  0  0  0  0  0  0  0  0
   13.7837   -2.3262    0.0000 C   0  0  0  0  0  0  0  0  0  0  0  0
   14.5125   -1.0970    0.0000 C   0  0  0  0  0  0  0  0  0  0  0  0
   14.5030   -1.9220    0.0000 C   0  0  0  0  0  0  0  0  0  0  0  0
  1  6  1  0  0  0  0
  2  3  1  0  0  0  0
  3  4  2  0  0  0  0
  3  5  1  0  0  0  0
  4  6  1  0  0  0  0
  5  7  2  0  0  0  0
  6  8  2  0  0  0  0
  7  8  1  0  0  0  0
M  END
$$$$
O=C1C=C[C@]2(C(=C1)CC[C@@H]1[C@@H]2[C@@H](O)C[C@]2([C@H]1C[C@@H]1[C@H]2OC(O1)(C)C)C)C
 OpenBabel07182308452D

 30 34  0  0  0  0  0  0  0  0999 V2000
    1.5226    0.3383    0.0000 C   0  0  1  0  0  0  0  0  0  0  0  0
    0.7251    0.0967    0.0000 C   0  0  2  0  0  0  0  0  0  0  0  0
    0.7251   -0.7250    0.0000 C   0  0  2  0  0  0  0  0  0  0  0  0
   -1.4259   -1.1601    0.0000 C   0  0  2  0  0  0  0  0  0  0  0  0
    0.0241   -1.1601    0.0000 C   0  0  1  0  0  0  0  0  0  0  0  0
    1.9819   -0.3142    0.0000 C   0  0  1  0  0  0  0  0  0  0  0  0
   -0.7009   -0.7250    0.0000 C   0  0  2  0  0  0  0  0  0  0  0  0
   -1.4259   -2.0061    0.0000 C   0  0  0  0  0  0  0  0  0  0  0  0
    0.0241    0.5075    0.0000 C   0  0  0  0  0  0  0  0  0  0  0  0
   -0.7009    0.0967    0.0000 C   0  0  2  0  0  0  0  0  0  0  0  0
   -2.1511   -0.7250    0.0000 C   0  0  0  0  0  0  0  0  0  0  0  0
    1.5226   -1.0151    0.0000 C   0  0  0  0  0  0  0  0  0  0  0  0
   -2.1511   -2.3928    0.0000 C   0  0  0  0  0  0  0  0  0  0  0  0
    0.0241   -2.0061    0.0000 C   0  0  0  0  0  0  0  0  0  0  0  0
   -2.8761   -1.1601    0.0000 C   0  0  0  0  0  0  0  0  0  0  0  0
   -2.8761   -2.0061    0.0000 C   0  0  0  0  0  0  0  0  0  0  0  0
   -0.7009   -2.3928    0.0000 C   0  0  0  0  0  0  0  0  0  0  0  0
   -3.6012   -2.4169    0.0000 O   0  0  0  0  0  0  0  0  0  0  0  0
    0.7251    0.9184    0.0000 C   0  0  0  0  0  0  0  0  0  0  0  0
   -1.4259    0.5317    0.0000 O   0  0  0  0  0  0  0  0  0  0  0  0
   -1.4259   -0.3142    0.0000 C   0  0  0  0  0  0  0  0  0  0  0  0
    0.7251   -1.5710    0.0000 H   0  0  0  0  0  0  0  0  0  0  0  0
   -0.7009   -1.5710    0.0000 H   0  0  0  0  0  0  0  0  0  0  0  0
    0.0241   -0.3142    0.0000 H   0  0  0  0  0  0  0  0  0  0  0  0
    2.0061    0.9909    0.0000 O   0  0  0  0  0  0  0  0  0  0  0  0
    2.7795    0.7251    0.0000 C   0  0  0  0  0  0  0  0  0  0  0  0
    2.7554   -0.0724    0.0000 O   0  0  0  0  0  0  0  0  0  0  0  0
    3.6012    0.7251    0.0000 C   0  0  0  0  0  0  0  0  0  0  0  0
    3.3597    1.3052    0.0000 C   0  0  0  0  0  0  0  0  0  0  0  0
   -1.4096    1.5016    0.0000 H   0  0  0  0  0  0  0  0  0  0  0  0
  1  2  1  6  0  0  0
  1 25  1  0  0  0  0
  2  3  1  1  0  0  0
  2 19  1  0  0  0  0
  3  5  1  1  0  0  0
  3 22  1  0  0  0  0
  4  7  1  6  0  0  0
  4 21  1  0  0  0  0
  5 24  1  0  0  0  0
  5  7  1  6  0  0  0
  6  1  1  0  0  0  0
  6 12  1  6  0  0  0
  6 27  1  0  0  0  0
  7 23  1  6  0  0  0
  8  4  1  0  0  0  0
  9  2  1  0  0  0  0
 10  7  1  1  0  0  0
 10  9  1  0  0  0  0
 10 20  1  0  0  0  0
 11  4  1  0  0  0  0
 12  3  1  0  0  0  0
 13  8  2  0  0  0  0
 14  5  1  0  0  0  0
 15 11  2  0  0  0  0
 16 13  1  0  0  0  0
 16 15  1  0  0  0  0
 17  8  1  0  0  0  0
 17 14  1  0  0  0  0
 18 16  2  0  0  0  0
 20 30  1  0  0  0  0
 26 25  1  0  0  0  0
 27 26  1  0  0  0  0
 28 26  1  0  0  0  0
 29 26  1  0  0  0  0
M  END
$$$$
Fc1ccc(c(c1)F)F
 OpenBabel07182308452D

  9  9  0  0  1  0  0  0  0  0999 V2000
    3.0791    0.7401    0.0000 F   0  0  0  0  0  0  0  0  0  0  0  0
    3.0791   -2.5599    0.0000 F   0  0  0  0  0  0  0  0  0  0  0  0
    1.6500   -1.7349    0.0000 F   0  0  0  0  0  0  0  0  0  0  0  0
    3.7935   -0.4974    0.0000 C   0  0  0  0  0  0  0  0  0  0  0  0
    3.0791   -0.0849    0.0000 C   0  0  0  0  0  0  0  0  0  0  0  0
    3.7935   -1.3224    0.0000 C   0  0  0  0  0  0  0  0  0  0  0  0
    3.0791   -1.7349    0.0000 C   0  0  0  0  0  0  0  0  0  0  0  0
    2.3645   -0.4974    0.0000 C   0  0  0  0  0  0  0  0  0  0  0  0
    2.3645   -1.3224    0.0000 C   0  0  0  0  0  0  0  0  0  0  0  0
  1  5  1  0  0  0  0
  2  7  1  0  0  0  0
  3  9  1  0  0  0  0
  4  5  1  0  0  0  0
  4  6  2  0  0  0  0
  5  8  2  0  0  0  0
  6  7  1  0  0  0  0
  7  9  2  0  0  0  0
  8  9  1  0  0  0  0
M  END
$$$$
N1CCn2c(C1)nnc2
 OpenBabel07182308452D

  9 10  0  0  1  0  0  0  0  0999 V2000
    7.3659   -0.0849    0.0000 N   0  0  0  0  0  0  0  0  0  0  0  0
    8.7949    0.7401    0.0000 N   0  0  0  0  0  0  0  0  0  0  0  0
    9.5756   -0.3363    0.0000 N   0  0  0  0  0  0  0  0  0  0  0  0
   10.0571    0.3276    0.0000 N   0  0  0  0  0  0  0  0  0  0  0  0
    7.3659    0.7401    0.0000 C   0  0  0  0  0  0  0  0  0  0  0  0
    8.0804    1.1526    0.0000 C   0  0  0  0  0  0  0  0  0  0  0  0
    8.0804   -0.4974    0.0000 C   0  0  0  0  0  0  0  0  0  0  0  0
    8.7949   -0.0849    0.0000 C   0  0  0  0  0  0  0  0  0  0  0  0
    9.5756    0.9915    0.0000 C   0  0  0  0  0  0  0  0  0  0  0  0
  1  5  1  0  0  0  0
  1  7  1  0  0  0  0
  2  6  1  0  0  0  0
  2  8  1  0  0  0  0
  2  9  1  0  0  0  0
  3  4  1  0  0  0  0
  3  8  2  0  0  0  0
  4  9  2  0  0  0  0
  5  6  1  0  0  0  0
  7  8  1  0  0  0  0
M  END
$$$$
C[C@@H]1COCC1
 OpenBabel07182308452D

  6  6  0  0  0  0  0  0  0  0999 V2000
    0.2586   -4.3581    0.0000 C   0  0  0  0  0  0  0  0  0  0  0  0
   -1.6745   -5.2847    0.0000 C   0  0  0  0  0  0  0  0  0  0  0  0
   -1.0131   -4.7916    0.0000 C   0  0  1  0  0  0  0  0  0  0  0  0
   -0.2218   -5.0250    0.0000 C   0  0  0  0  0  0  0  0  0  0  0  0
   -0.2343   -3.6968    0.0000 O   0  0  0  0  0  0  0  0  0  0  0  0
   -1.0107   -3.9667    0.0000 C   0  0  0  0  0  0  0  0  0  0  0  0
  1  5  1  0  0  0  0
  3  2  1  6  0  0  0
  3  4  1  0  0  0  0
  3  6  1  0  0  0  0
  4  1  1  0  0  0  0
  5  6  1  0  0  0  0
M  END
$$$$
Cn1nc[nH]c1=O
 OpenBabel07182308452D

  7  7  0  0  0  0  0  0  0  0999 V2000
   -2.4387    3.2834    0.0000 N   0  0  0  0  0  0  0  0  0  0  0  0
   -1.7710    3.7814    0.0000 C   0  0  0  0  0  0  0  0  0  0  0  0
   -2.0382    4.5706    0.0000 N   0  0  0  0  0  0  0  0  0  0  0  0
   -2.8711    4.5603    0.0000 N   0  0  0  0  0  0  0  0  0  0  0  0
   -3.1189    3.7647    0.0000 C   0  0  0  0  0  0  0  0  0  0  0  0
   -1.6349    5.2897    0.0000 C   0  0  0  0  0  0  0  0  0  0  0  0
   -0.9789    3.5348    0.0000 O   0  0  0  0  0  0  0  0  0  0  0  0
  1  2  1  0  0  0  0
  1  5  1  0  0  0  0
  2  3  1  0  0  0  0
  2  7  2  0  0  0  0
  3  4  1  0  0  0  0
  3  6  1  0  0  0  0
  4  5  2  0  0  0  0
M  END
$$$$
C1C[C@@H]2[C@H](O1)OCC2
 OpenBabel07182308452D

 10 11  0  0  0  0  0  0  0  0999 V2000
    0.7233   -1.4399    0.0000 C   0  0  0  0  0  0  0  0  0  0  0  0
    0.0605   -1.9289    0.0000 C   0  0  0  0  0  0  0  0  0  0  0  0
    0.3213   -2.7118    0.0000 O   0  0  0  0  0  0  0  0  0  0  0  0
    1.3955   -1.9191    0.0000 C   0  0  1  0  0  0  0  0  0  0  0  0
    1.1494   -2.7049    0.0000 C   0  0  2  0  0  0  0  0  0  0  0  0
    1.8206   -3.1817    0.0000 O   0  0  0  0  0  0  0  0  0  0  0  0
    2.4818   -2.6907    0.0000 C   0  0  0  0  0  0  0  0  0  0  0  0
    2.2189   -1.9104    0.0000 C   0  0  0  0  0  0  0  0  0  0  0  0
    1.5985   -1.1159    0.0000 H   0  0  0  0  0  0  0  0  0  0  0  0
    0.9389   -3.5009    0.0000 H   0  0  0  0  0  0  0  0  0  0  0  0
  1  2  1  0  0  0  0
  2  3  1  0  0  0  0
  3  5  1  0  0  0  0
  4  1  1  0  0  0  0
  4  5  1  1  0  0  0
  4  9  1  0  0  0  0
  5  6  1  0  0  0  0
  5 10  1  1  0  0  0
  6  7  1  0  0  0  0
  7  8  1  0  0  0  0
  8  4  1  0  0  0  0
M  END
$$$$
Cc1nc2C(O)CCCn2c(=O)c1C
 OpenBabel07182308452D

 15 16  0  0  1  0  0  0  0  0999 V2000
   11.2647    2.2343    0.0000 O   0  0  0  0  0  0  0  0  0  0  0  0
    9.8223   -1.0943    0.0000 O   0  0  0  0  0  0  0  0  0  0  0  0
   10.5367    0.1432    0.0000 N   0  0  0  0  0  0  0  0  0  0  0  0
    9.8223    1.3808    0.0000 N   0  0  0  0  0  0  0  0  0  0  0  0
    8.3932   -0.2693    0.0000 C   0  0  0  0  0  0  0  0  0  0  0  0
    9.1078    0.1432    0.0000 C   0  0  0  0  0  0  0  0  0  0  0  0
   11.2742   -0.2979    0.0000 C   0  0  0  0  0  0  0  0  0  0  0  0
   11.2742    1.4093    0.0000 C   0  0  3  0  0  0  0  0  0  0  0  0
   12.0218    0.1261    0.0000 C   0  0  0  0  0  0  0  0  0  0  0  0
   12.0218    0.9854    0.0000 C   0  0  0  0  0  0  0  0  0  0  0  0
   10.5367    0.9682    0.0000 C   0  0  0  0  0  0  0  0  0  0  0  0
    9.8223   -0.2693    0.0000 C   0  0  0  0  0  0  0  0  0  0  0  0
    9.1078    0.9682    0.0000 C   0  0  0  0  0  0  0  0  0  0  0  0
    8.3932    1.3808    0.0000 C   0  0  0  0  0  0  0  0  0  0  0  0
   12.0991    2.7289    0.0000 H   0  0  0  0  0  0  0  0  0  0  0  0
  1  8  1  0  0  0  0
  1 15  1  0  0  0  0
  2 12  2  0  0  0  0
  3  7  1  0  0  0  0
  3 11  1  0  0  0  0
  3 12  1  0  0  0  0
  4 11  2  0  0  0  0
  4 13  1  0  0  0  0
  5  6  1  0  0  0  0
  6 12  1  0  0  0  0
  6 13  2  0  0  0  0
  7  9  1  0  0  0  0
  8 10  1  0  0  0  0
  8 11  1  0  0  0  0
  9 10  1  0  0  0  0
 13 14  1  0  0  0  0
M  END
$$$$
Fc1ccc2c(c1)C(=C)C(=O)N2
 OpenBabel07182308452D

 13 14  0  0  0  0  0  0  0  0999 V2000
    1.6500   -1.1857    0.0000 F   0  0  0  0  0  0  0  0  0  0  0  0
    5.8806   -2.0107    0.0000 O   0  0  0  0  0  0  0  0  0  0  0  0
    4.5741   -2.6746    0.0000 N   0  0  0  0  0  0  0  0  0  0  0  0
    4.5741   -1.3467    0.0000 C   0  0  0  0  0  0  0  0  0  0  0  0
    4.8304   -0.5626    0.0000 C   0  0  0  0  0  0  0  0  0  0  0  0
    3.7935   -1.5982    0.0000 C   0  0  0  0  0  0  0  0  0  0  0  0
    3.7935   -2.4232    0.0000 C   0  0  0  0  0  0  0  0  0  0  0  0
    5.0556   -2.0107    0.0000 C   0  0  0  0  0  0  0  0  0  0  0  0
    3.0790   -1.1857    0.0000 C   0  0  0  0  0  0  0  0  0  0  0  0
    3.0790   -2.8357    0.0000 C   0  0  0  0  0  0  0  0  0  0  0  0
    2.3645   -1.5982    0.0000 C   0  0  0  0  0  0  0  0  0  0  0  0
    2.3645   -2.4232    0.0000 C   0  0  0  0  0  0  0  0  0  0  0  0
    4.8799   -3.6104    0.0000 H   0  0  0  0  0  0  0  0  0  0  0  0
  1 11  1  0  0  0  0
  2  8  2  0  0  0  0
  3  7  1  0  0  0  0
  3  8  1  0  0  0  0
  3 13  1  0  0  0  0
  4  5  2  0  0  0  0
  4  6  1  0  0  0  0
  4  8  1  0  0  0  0
  6  7  2  0  0  0  0
  6  9  1  0  0  0  0
  7 10  1  0  0  0  0
  9 11  2  0  0  0  0
 10 12  2  0  0  0  0
 11 12  1  0  0  0  0
M  END
$$$$
Cc1[nH]cc(c1)C
 OpenBabel07182308452D

  8  8  0  0  0  0  0  0  0  0999 V2000
    6.2498   -0.9455    0.0000 N   0  0  0  0  0  0  0  0  0  0  0  0
    6.7949    0.2730    0.0000 C   0  0  0  0  0  0  0  0  0  0  0  0
    5.9746    0.3606    0.0000 C   0  0  0  0  0  0  0  0  0  0  0  0
    5.6377   -0.3925    0.0000 C   0  0  0  0  0  0  0  0  0  0  0  0
    6.9650   -0.5343    0.0000 C   0  0  0  0  0  0  0  0  0  0  0  0
    5.5633    1.0758    0.0000 C   0  0  0  0  0  0  0  0  0  0  0  0
    7.7181   -0.8711    0.0000 C   0  0  0  0  0  0  0  0  0  0  0  0
    6.1452   -1.9244    0.0000 H   0  0  0  0  0  0  0  0  0  0  0  0
  1  4  1  0  0  0  0
  1  5  1  0  0  0  0
  1  8  1  0  0  0  0
  2  3  1  0  0  0  0
  2  5  2  0  0  0  0
  3  4  2  0  0  0  0
  3  6  1  0  0  0  0
  5  7  1  0  0  0  0
M  END
$$$$
N1CC2CC(C1)c1c2cc2c(c1)nccn2
 OpenBabel07182308452D

 17 20  0  0  0  0  0  0  0  0999 V2000
    0.5175   -0.4060    0.0000 C   0  0  0  0  0  0  0  0  0  0  0  0
    0.5188    0.4184    0.0000 C   0  0  0  0  0  0  0  0  0  0  0  0
   -0.1944    0.8298    0.0000 C   0  0  0  0  0  0  0  0  0  0  0  0
   -0.1924   -0.8174    0.0000 C   0  0  0  0  0  0  0  0  0  0  0  0
   -0.9016   -0.4104    0.0000 C   0  0  0  0  0  0  0  0  0  0  0  0
   -0.9029    0.4141    0.0000 C   0  0  0  0  0  0  0  0  0  0  0  0
   -1.6165    0.8237    0.0000 N   0  0  0  0  0  0  0  0  0  0  0  0
   -2.3296    0.4096    0.0000 C   0  0  0  0  0  0  0  0  0  0  0  0
   -2.3243   -0.4181    0.0000 C   0  0  0  0  0  0  0  0  0  0  0  0
   -1.6100   -0.8240    0.0000 N   0  0  0  0  0  0  0  0  0  0  0  0
    1.9809    0.7352    0.0000 C   0  0  0  0  0  0  0  0  0  0  0  0
    2.3296   -0.0076    0.0000 N   0  0  0  0  0  0  0  0  0  0  0  0
    1.9627   -0.7520    0.0000 C   0  0  0  0  0  0  0  0  0  0  0  0
    1.1734    0.9300    0.0000 C   0  0  3  0  0  0  0  0  0  0  0  0
    1.1552   -0.9300    0.0000 C   0  0  3  0  0  0  0  0  0  0  0  0
    1.4666   -0.0112    0.0000 C   0  0  0  0  0  0  0  0  0  0  0  0
    3.3496   -0.0173    0.0000 H   0  0  0  0  0  0  0  0  0  0  0  0
  1  2  2  0  0  0  0
  2  3  1  0  0  0  0
  3  6  2  0  0  0  0
  4  1  1  0  0  0  0
  5  6  1  0  0  0  0
  5  4  2  0  0  0  0
  6  7  1  0  0  0  0
  7  8  2  0  0  0  0
  8  9  1  0  0  0  0
  9 10  2  0  0  0  0
 10  5  1  0  0  0  0
 11 14  1  0  0  0  0
 11 12  1  0  0  0  0
 12 13  1  0  0  0  0
 12 17  1  0  0  0  0
 13 15  1  0  0  0  0
 14  2  1  0  0  0  0
 15  1  1  0  0  0  0
 15 16  1  0  0  0  0
 16 14  1  0  0  0  0
M  END
$$$$
c1ccc2c(c1)cnnc2
 OpenBabel07182308452D

 10 11  0  0  0  0  0  0  0  0999 V2000
    2.0094    0.4298    0.0000 N   0  0  0  0  0  0  0  0  0  0  0  0
    2.0094    1.2219    0.0000 N   0  0  0  0  0  0  0  0  0  0  0  0
    3.3813    0.4298    0.0000 C   0  0  0  0  0  0  0  0  0  0  0  0
    3.3813    1.2219    0.0000 C   0  0  0  0  0  0  0  0  0  0  0  0
    2.6954    0.0338    0.0000 C   0  0  0  0  0  0  0  0  0  0  0  0
    4.0893    0.0063    0.0000 C   0  0  0  0  0  0  0  0  0  0  0  0
    4.0893    1.6454    0.0000 C   0  0  0  0  0  0  0  0  0  0  0  0
    4.8070    0.4133    0.0000 C   0  0  0  0  0  0  0  0  0  0  0  0
    2.6954    1.6179    0.0000 C   0  0  0  0  0  0  0  0  0  0  0  0
    4.8070    1.2384    0.0000 C   0  0  0  0  0  0  0  0  0  0  0  0
  1  2  1  0  0  0  0
  1  5  2  0  0  0  0
  2  9  2  0  0  0  0
  3  4  1  0  0  0  0
  3  5  1  0  0  0  0
  3  6  2  0  0  0  0
  4  7  2  0  0  0  0
  4  9  1  0  0  0  0
  6  8  1  0  0  0  0
  7 10  1  0  0  0  0
  8 10  2  0  0  0  0
M  END
$$$$
O=C1CNC(=O)[C@H](C)NC(=O)CCSSCCNC(=O)CNC(=O)[C@@H](N1)C
 OpenBabel07182308452D

 34 34  0  0  0  0  0  0  0  0999 V2000
  -24.7646   -7.2156    0.0000 C   0  0  0  0  0  0  0  0  0  0  0  0
  -25.4772   -7.6313    0.0000 C   0  0  0  0  0  0  0  0  0  0  0  0
  -25.4772   -8.4033    0.0000 O   0  0  0  0  0  0  0  0  0  0  0  0
  -24.0520   -5.9685    0.0000 S   0  0  0  0  0  0  0  0  0  0  0  0
  -24.7646   -6.3841    0.0000 C   0  0  0  0  0  0  0  0  0  0  0  0
  -26.8432   -7.6313    0.0000 C   0  0  1  0  0  0  0  0  0  0  0  0
  -27.5559   -7.2156    0.0000 C   0  0  0  0  0  0  0  0  0  0  0  0
  -26.1306   -7.2156    0.0000 N   0  0  0  0  0  0  0  0  0  0  0  0
  -28.2685   -7.6313    0.0000 O   0  0  0  0  0  0  0  0  0  0  0  0
  -26.8432   -8.4033    0.0000 C   0  0  0  0  0  0  0  0  0  0  0  0
  -28.2685   -5.9685    0.0000 C   0  0  0  0  0  0  0  0  0  0  0  0
  -28.2685   -5.1370    0.0000 C   0  0  0  0  0  0  0  0  0  0  0  0
  -27.5559   -6.3841    0.0000 N   0  0  0  0  0  0  0  0  0  0  0  0
  -28.9812   -4.7213    0.0000 O   0  0  0  0  0  0  0  0  0  0  0  0
  -28.2685   -6.7998    0.0000 H   0  0  0  0  0  0  0  0  0  0  0  0
  -28.2685   -3.5335    0.0000 C   0  0  0  0  0  0  0  0  0  0  0  0
  -27.5559   -3.9492    0.0000 C   0  0  1  0  0  0  0  0  0  0  0  0
  -26.8432   -3.5335    0.0000 C   0  0  0  0  0  0  0  0  0  0  0  0
  -27.5559   -4.7213    0.0000 N   0  0  0  0  0  0  0  0  0  0  0  0
  -26.8432   -2.7020    0.0000 O   0  0  0  0  0  0  0  0  0  0  0  0
  -25.4772   -3.5335    0.0000 C   0  0  0  0  0  0  0  0  0  0  0  0
  -24.7646   -3.9492    0.0000 C   0  0  0  0  0  0  0  0  0  0  0  0
  -26.1306   -3.9492    0.0000 N   0  0  0  0  0  0  0  0  0  0  0  0
  -24.7646   -4.7213    0.0000 O   0  0  0  0  0  0  0  0  0  0  0  0
  -24.7646   -3.1178    0.0000 H   0  0  0  0  0  0  0  0  0  0  0  0
  -23.3393   -3.9492    0.0000 C   0  0  0  0  0  0  0  0  0  0  0  0
  -24.0520   -3.5335    0.0000 N   0  0  0  0  0  0  0  0  0  0  0  0
  -24.0520   -5.1370    0.0000 S   0  0  0  0  0  0  0  0  0  0  0  0
  -23.3393   -4.7213    0.0000 C   0  0  0  0  0  0  0  0  0  0  0  0
  -26.1116   -6.2313    0.0000 H   0  0  0  0  0  0  0  0  0  0  0  0
  -26.7022   -5.8937    0.0000 H   0  0  0  0  0  0  0  0  0  0  0  0
  -26.7022   -5.2116    0.0000 H   0  0  0  0  0  0  0  0  0  0  0  0
  -26.1116   -4.9335    0.0000 H   0  0  0  0  0  0  0  0  0  0  0  0
  -24.0520   -2.5490    0.0000 H   0  0  0  0  0  0  0  0  0  0  0  0
  1  5  1  0  0  0  0
  1  2  1  0  0  0  0
  2  8  1  0  0  0  0
  2  3  2  0  0  0  0
  4 28  1  0  0  0  0
  4  5  1  0  0  0  0
  6  8  1  0  0  0  0
  6  7  1  0  0  0  0
  6 10  1  1  0  0  0
  7 13  1  0  0  0  0
  7  9  2  0  0  0  0
  8 30  1  0  0  0  0
 11 13  1  0  0  0  0
 11 12  1  0  0  0  0
 11 15  1  0  0  0  0
 12 19  1  0  0  0  0
 12 14  2  0  0  0  0
 13 31  1  0  0  0  0
 17 16  1  1  0  0  0
 17 18  1  0  0  0  0
 17 19  1  0  0  0  0
 18 23  1  0  0  0  0
 18 20  2  0  0  0  0
 19 32  1  0  0  0  0
 21 23  1  0  0  0  0
 21 22  1  0  0  0  0
 21 25  1  0  0  0  0
 22 27  1  0  0  0  0
 22 24  2  0  0  0  0
 23 33  1  0  0  0  0
 26 29  1  0  0  0  0
 26 27  1  0  0  0  0
 27 34  1  0  0  0  0
 28 29  1  0  0  0  0
M  END
$$$$
Nc1nc2[nH]cnc2cn1
 OpenBabel07182308452D

 12 13  0  0  1  0  0  0  0  0999 V2000
    5.0171   -0.6383    0.0000 N   0  0  0  0  0  0  0  0  0  0  0  0
    5.0171   -1.9662    0.0000 N   0  0  0  0  0  0  0  0  0  0  0  0
    3.5220   -0.4772    0.0000 N   0  0  0  0  0  0  0  0  0  0  0  0
    2.8075   -1.7147    0.0000 N   0  0  0  0  0  0  0  0  0  0  0  0
    2.0930   -0.4772    0.0000 N   0  0  0  0  0  0  0  0  0  0  0  0
    4.2365   -0.8897    0.0000 C   0  0  0  0  0  0  0  0  0  0  0  0
    5.4986   -1.3022    0.0000 C   0  0  0  0  0  0  0  0  0  0  0  0
    4.2365   -1.7147    0.0000 C   0  0  0  0  0  0  0  0  0  0  0  0
    3.5220   -2.1272    0.0000 C   0  0  0  0  0  0  0  0  0  0  0  0
    2.8075   -0.8897    0.0000 C   0  0  0  0  0  0  0  0  0  0  0  0
    2.0930    0.5073    0.0000 H   0  0  0  0  0  0  0  0  0  0  0  0
    1.2404   -0.9695    0.0000 H   0  0  0  0  0  0  0  0  0  0  0  0
  1  6  1  0  0  0  0
  1  7  1  0  0  0  0
  2  7  2  0  0  0  0
  2  8  1  0  0  0  0
  3  6  1  0  0  0  0
  3 10  2  0  0  0  0
  4  9  2  0  0  0  0
  4 10  1  0  0  0  0
  5 10  1  0  0  0  0
  5 11  1  0  0  0  0
  5 12  1  0  0  0  0
  6  8  2  0  0  0  0
  8  9  1  0  0  0  0
M  END
$$$$
O=C1CNC(=O)[C@H](C)NC(=O)CCCSCCNC(=O)[C@@H](NC(=O)[C@@H](N1)C)C
 OpenBabel07182308452D

 34 34  0  0  1  0  0  0  0  0999 V2000
    9.4107   -8.9699    0.0000 C   0  0  0  0  0  0  0  0  0  0  0  0
    8.6828   -9.3581    0.0000 N   0  0  0  0  0  0  0  0  0  0  0  0
    7.9549   -8.9699    0.0000 C   0  0  0  0  0  0  0  0  0  0  0  0
    7.2270   -9.3581    0.0000 C   0  0  1  0  0  0  0  0  0  0  0  0
    6.4991   -8.9699    0.0000 N   0  0  0  0  0  0  0  0  0  0  0  0
    9.4107   -8.1449    0.0000 C   0  0  0  0  0  0  0  0  0  0  0  0
   10.1386   -7.7082    0.0000 S   0  0  0  0  0  0  0  0  0  0  0  0
   10.1386   -6.8347    0.0000 C   0  0  0  0  0  0  0  0  0  0  0  0
    7.9549   -8.1449    0.0000 O   0  0  0  0  0  0  0  0  0  0  0  0
    7.2270  -10.1831    0.0000 C   0  0  0  0  0  0  0  0  0  0  0  0
    6.4991   -8.1449    0.0000 C   0  0  0  0  0  0  0  0  0  0  0  0
    5.7227   -7.7082    0.0000 C   0  0  2  0  0  0  0  0  0  0  0  0
    7.2270   -7.7082    0.0000 O   0  0  0  0  0  0  0  0  0  0  0  0
    5.0433   -8.1449    0.0000 C   0  0  0  0  0  0  0  0  0  0  0  0
    5.7227   -6.8832    0.0000 N   0  0  0  0  0  0  0  0  0  0  0  0
    6.4991   -5.6215    0.0000 C   0  0  0  0  0  0  0  0  0  0  0  0
    6.4991   -6.4464    0.0000 C   0  0  0  0  0  0  0  0  0  0  0  0
    9.4107   -5.6215    0.0000 N   0  0  0  0  0  0  0  0  0  0  0  0
   10.1386   -5.1848    0.0000 C   0  0  0  0  0  0  0  0  0  0  0  0
   10.8665   -5.6215    0.0000 C   0  0  0  0  0  0  0  0  0  0  0  0
   10.8665   -6.4464    0.0000 C   0  0  0  0  0  0  0  0  0  0  0  0
    7.9549   -5.6215    0.0000 C   0  0  0  0  0  0  0  0  0  0  0  0
    7.9549   -6.4464    0.0000 O   0  0  0  0  0  0  0  0  0  0  0  0
    8.6828   -5.1848    0.0000 C   0  0  2  0  0  0  0  0  0  0  0  0
    7.2270   -5.1848    0.0000 N   0  0  0  0  0  0  0  0  0  0  0  0
    7.2270   -6.8347    0.0000 O   0  0  0  0  0  0  0  0  0  0  0  0
    8.6828   -4.3113    0.0000 C   0  0  0  0  0  0  0  0  0  0  0  0
   10.1386   -4.3113    0.0000 O   0  0  0  0  0  0  0  0  0  0  0  0
    6.4991   -4.7965    0.0000 H   0  0  0  0  0  0  0  0  0  0  0  0
    8.6828  -10.3426    0.0000 H   0  0  0  0  0  0  0  0  0  0  0  0
    5.6549   -9.4764    0.0000 H   0  0  0  0  0  0  0  0  0  0  0  0
    4.8729   -6.3862    0.0000 H   0  0  0  0  0  0  0  0  0  0  0  0
    9.4107   -6.6060    0.0000 H   0  0  0  0  0  0  0  0  0  0  0  0
    7.2270   -4.2003    0.0000 H   0  0  0  0  0  0  0  0  0  0  0  0
  1  2  1  0  0  0  0
  2 30  1  0  0  0  0
  3  2  1  0  0  0  0
  4  3  1  0  0  0  0
  4 10  1  6  0  0  0
  5  4  1  0  0  0  0
  5 31  1  0  0  0  0
  6  1  1  0  0  0  0
  7  6  1  0  0  0  0
  8  7  1  0  0  0  0
  9  3  2  0  0  0  0
 11  5  1  0  0  0  0
 12 11  1  0  0  0  0
 12 14  1  6  0  0  0
 13 11  2  0  0  0  0
 15 12  1  0  0  0  0
 15 32  1  0  0  0  0
 16 29  1  0  0  0  0
 17 15  1  0  0  0  0
 17 16  1  0  0  0  0
 18 33  1  0  0  0  0
 19 18  1  0  0  0  0
 20 19  1  0  0  0  0
 21  8  1  0  0  0  0
 21 20  1  0  0  0  0
 23 22  2  0  0  0  0
 24 18  1  0  0  0  0
 24 22  1  0  0  0  0
 24 27  1  6  0  0  0
 25 16  1  0  0  0  0
 25 22  1  0  0  0  0
 25 34  1  0  0  0  0
 26 17  2  0  0  0  0
 28 19  2  0  0  0  0
M  END
$$$$
Nc1c(F)cccc1Cl
 OpenBabel07182308452D

 10 10  0  0  0  0  0  0  0  0999 V2000
   -0.4017   -0.6035    0.0000 C   0  0  0  0  0  0  0  0  0  0  0  0
   -1.1162   -1.0160    0.0000 C   0  0  0  0  0  0  0  0  0  0  0  0
   -1.1162   -1.8410    0.0000 C   0  0  0  0  0  0  0  0  0  0  0  0
   -0.4017   -2.2535    0.0000 C   0  0  0  0  0  0  0  0  0  0  0  0
    0.3126   -1.8410    0.0000 C   0  0  0  0  0  0  0  0  0  0  0  0
    0.3126   -1.0160    0.0000 C   0  0  0  0  0  0  0  0  0  0  0  0
   -0.4017    0.2214    0.0000 N   0  0  0  0  0  0  0  0  0  0  0  0
    1.0271   -0.6035    0.0000 Cl  0  0  0  0  0  0  0  0  0  0  0  0
   -1.8307   -0.6035    0.0000 F   0  0  0  0  0  0  0  0  0  0  0  0
    0.4509    0.7137    0.0000 H   0  0  0  0  0  0  0  0  0  0  0  0
  1  2  1  0  0  0  0
  1  6  2  0  0  0  0
  1  7  1  0  0  0  0
  2  3  2  0  0  0  0
  2  9  1  0  0  0  0
  3  4  1  0  0  0  0
  4  5  2  0  0  0  0
  5  6  1  0  0  0  0
  6  8  1  0  0  0  0
  7 10  1  0  0  0  0
M  END
$$$$
Oc1cccnc1
 OpenBabel07182308452D

  8  8  0  0  1  0  0  0  0  0999 V2000
    7.3659    1.1096    0.0000 O   0  0  0  0  0  0  0  0  0  0  0  0
    5.9370   -0.5404    0.0000 N   0  0  0  0  0  0  0  0  0  0  0  0
    5.2224   -0.1279    0.0000 C   0  0  0  0  0  0  0  0  0  0  0  0
    5.2224    0.6971    0.0000 C   0  0  0  0  0  0  0  0  0  0  0  0
    6.6515   -0.1279    0.0000 C   0  0  0  0  0  0  0  0  0  0  0  0
    5.9370    1.1096    0.0000 C   0  0  0  0  0  0  0  0  0  0  0  0
    6.6515    0.6971    0.0000 C   0  0  0  0  0  0  0  0  0  0  0  0
    8.1774    0.6411    0.0000 H   0  0  0  0  0  0  0  0  0  0  0  0
  1  7  1  0  0  0  0
  1  8  1  0  0  0  0
  2  3  2  0  0  0  0
  2  5  1  0  0  0  0
  3  4  1  0  0  0  0
  4  6  2  0  0  0  0
  5  7  2  0  0  0  0
  6  7  1  0  0  0  0
M  END
$$$$
O[Bi]1OC(=O)c2c(O1)cccc2
 OpenBabel07182308452D

 13 14  0  0  0  0  0  0  0  0999 V2000
    1.7861    1.2375    0.0000 O   0  0  0  0  0  0  0  0  0  0  0  0
    1.0717    0.8250    0.0000 Bi  0  0  3  0  0  0  0  0  0  0  0  0
    1.0717    0.0000    0.0000 O   0  0  0  0  0  0  0  0  0  0  0  0
    0.3572   -0.4125    0.0000 C   0  0  0  0  0  0  0  0  0  0  0  0
    0.3572   -1.2375    0.0000 O   0  0  0  0  0  0  0  0  0  0  0  0
   -0.3572    0.0000    0.0000 C   0  0  0  0  0  0  0  0  0  0  0  0
   -1.0717   -0.4125    0.0000 C   0  0  0  0  0  0  0  0  0  0  0  0
   -1.7861    0.0000    0.0000 C   0  0  0  0  0  0  0  0  0  0  0  0
   -1.7861    0.8250    0.0000 C   0  0  0  0  0  0  0  0  0  0  0  0
   -1.0717    1.2375    0.0000 C   0  0  0  0  0  0  0  0  0  0  0  0
   -0.3572    0.8250    0.0000 C   0  0  0  0  0  0  0  0  0  0  0  0
    0.3572    1.2375    0.0000 O   0  0  0  0  0  0  0  0  0  0  0  0
    2.6262    0.7525    0.0000 H   0  0  0  0  0  0  0  0  0  0  0  0
  1  2  1  0  0  0  0
  1 13  1  0  0  0  0
  2  3  1  0  0  0  0
  2 12  1  0  0  0  0
  3  4  1  0  0  0  0
  4  5  2  0  0  0  0
  4  6  1  0  0  0  0
  6  7  2  0  0  0  0
  6 11  1  0  0  0  0
  7  8  1  0  0  0  0
  8  9  2  0  0  0  0
  9 10  1  0  0  0  0
 10 11  2  0  0  0  0
 11 12  1  0  0  0  0
M  END
$$$$
OC1OC[C@H]([C@@H]([C@H]1N)O)O
 OpenBabel07182308452D

 15 15  0  0  1  0  0  0  0  0999 V2000
    4.2365   -0.0784    0.0000 O   0  0  0  0  0  0  0  0  0  0  0  0
    2.0930    1.1592    0.0000 O   0  0  0  0  0  0  0  0  0  0  0  0
    2.0930   -0.4909    0.0000 O   0  0  0  0  0  0  0  0  0  0  0  0
    4.9509    1.1592    0.0000 O   0  0  0  0  0  0  0  0  0  0  0  0
    3.5220    1.9842    0.0000 N   0  0  0  0  0  0  0  0  0  0  0  0
    2.8075    0.7466    0.0000 C   0  0  1  0  0  0  0  0  0  0  0  0
    2.8075   -0.0784    0.0000 C   0  0  1  0  0  0  0  0  0  0  0  0
    3.5220    1.1592    0.0000 C   0  0  2  0  0  0  0  0  0  0  0  0
    3.5220   -0.4909    0.0000 C   0  0  0  0  0  0  0  0  0  0  0  0
    4.2365    0.7466    0.0000 C   0  0  3  0  0  0  0  0  0  0  0  0
    2.0931    2.1292    0.0000 H   0  0  0  0  0  0  0  0  0  0  0  0
    1.2530   -0.0059    0.0000 H   0  0  0  0  0  0  0  0  0  0  0  0
    5.7910    0.6743    0.0000 H   0  0  0  0  0  0  0  0  0  0  0  0
    4.4053    2.4942    0.0000 H   0  0  0  0  0  0  0  0  0  0  0  0
    2.6387    2.4942    0.0000 H   0  0  0  0  0  0  0  0  0  0  0  0
  1  9  1  0  0  0  0
  1 10  1  0  0  0  0
  2 11  1  0  0  0  0
  3 12  1  0  0  0  0
  4 10  1  0  0  0  0
  4 13  1  0  0  0  0
  5 14  1  0  0  0  0
  5 15  1  0  0  0  0
  6  2  1  6  0  0  0
  6  7  1  0  0  0  0
  6  8  1  0  0  0  0
  7  3  1  1  0  0  0
  7  9  1  0  0  0  0
  8  5  1  1  0  0  0
  8 10  1  0  0  0  0
M  END
$$$$
O=c1nccc[nH]1
 OpenBabel07182308452D

  7  7  0  0  0  0  0  0  0  0999 V2000
    1.6500   -1.9058    0.0000 O   0  0  0  0  0  0  0  0  0  0  0  0
    3.0791   -1.9058    0.0000 N   0  0  0  0  0  0  0  0  0  0  0  0
    2.3645   -0.6683    0.0000 N   0  0  0  0  0  0  0  0  0  0  0  0
    3.0791   -0.2558    0.0000 C   0  0  0  0  0  0  0  0  0  0  0  0
    3.7935   -1.4933    0.0000 C   0  0  0  0  0  0  0  0  0  0  0  0
    3.7935   -0.6683    0.0000 C   0  0  0  0  0  0  0  0  0  0  0  0
    2.3645   -1.4933    0.0000 C   0  0  0  0  0  0  0  0  0  0  0  0
  1  7  2  0  0  0  0
  2  5  1  0  0  0  0
  2  7  1  0  0  0  0
  3  4  2  0  0  0  0
  3  7  1  0  0  0  0
  4  6  1  0  0  0  0
  5  6  2  0  0  0  0
M  END
$$$$
Cn1c(=O)c2[n-]cnc2n(c1=O)C
 OpenBabel07182308452D

 13 14  0  0  0  0  0  0  0  0999 V2000
   13.2042   -9.1236    0.0000 C   0  0  0  0  0  0  0  0  0  0  0  0
   13.2042   -9.9486    0.0000 C   0  0  0  0  0  0  0  0  0  0  0  0
   13.9187  -10.3611    0.0000 N   0  0  0  0  0  0  0  0  0  0  0  0
   14.6330   -9.9486    0.0000 C   0  0  0  0  0  0  0  0  0  0  0  0
   14.6330   -9.1236    0.0000 N   0  0  0  0  0  0  0  0  0  0  0  0
   13.9187   -8.7112    0.0000 C   0  0  0  0  0  0  0  0  0  0  0  0
   12.4197   -8.8688    0.0000 N   0  5  0  0  0  0  0  0  0  0  0  0
   11.9348   -9.5361    0.0000 C   0  0  0  0  0  0  0  0  0  0  0  0
   12.4197  -10.2035    0.0000 N   0  0  0  0  0  0  0  0  0  0  0  0
   13.9187   -7.8863    0.0000 O   0  0  0  0  0  0  0  0  0  0  0  0
   15.3483  -10.3615    0.0000 O   0  0  0  0  0  0  0  0  0  0  0  0
   15.3483   -8.7108    0.0000 C   0  0  0  0  0  0  0  0  0  0  0  0
   13.9187  -11.1861    0.0000 C   0  0  0  0  0  0  0  0  0  0  0  0
  1  2  2  0  0  0  0
  1  6  1  0  0  0  0
  1  7  1  0  0  0  0
  2  3  1  0  0  0  0
  2  9  1  0  0  0  0
  3  4  1  0  0  0  0
  3 13  1  0  0  0  0
  4  5  1  0  0  0  0
  4 11  2  0  0  0  0
  5  6  1  0  0  0  0
  5 12  1  0  0  0  0
  6 10  2  0  0  0  0
  7  8  1  0  0  0  0
  8  9  2  0  0  0  0
M  CHG  1   7  -1
M  END
$$$$
O=C1OCCC=C1
 OpenBabel07182308452D

  7  7  0  0  1  0  0  0  0  0999 V2000
    5.9370   -0.8250    0.0000 O   0  0  0  0  0  0  0  0  0  0  0  0
    7.3659   -0.8250    0.0000 O   0  0  0  0  0  0  0  0  0  0  0  0
    5.2224   -0.4125    0.0000 C   0  0  0  0  0  0  0  0  0  0  0  0
    5.2224    0.4125    0.0000 C   0  0  0  0  0  0  0  0  0  0  0  0
    5.9370    0.8250    0.0000 C   0  0  0  0  0  0  0  0  0  0  0  0
    6.6515    0.4125    0.0000 C   0  0  0  0  0  0  0  0  0  0  0  0
    6.6515   -0.4125    0.0000 C   0  0  0  0  0  0  0  0  0  0  0  0
  1  3  1  0  0  0  0
  1  7  1  0  0  0  0
  2  7  2  0  0  0  0
  3  4  1  0  0  0  0
  4  5  1  0  0  0  0
  5  6  2  0  0  0  0
  6  7  1  0  0  0  0
M  END
$$$$
C1CC=CC=C1
 OpenBabel07182308452D

  6  6  0  0  1  0  0  0  0  0999 V2000
    1.6500   -0.8250    0.0000 C   0  0  0  0  0  0  0  0  0  0  0  0
    3.0791   -0.8250    0.0000 C   0  0  0  0  0  0  0  0  0  0  0  0
    1.6500   -1.6500    0.0000 C   0  0  0  0  0  0  0  0  0  0  0  0
    2.3645   -0.4125    0.0000 C   0  0  0  0  0  0  0  0  0  0  0  0
    3.0791   -1.6500    0.0000 C   0  0  0  0  0  0  0  0  0  0  0  0
    2.3645   -2.0625    0.0000 C   0  0  0  0  0  0  0  0  0  0  0  0
  1  3  1  0  0  0  0
  1  4  1  0  0  0  0
  2  4  2  0  0  0  0
  2  5  1  0  0  0  0
  3  6  1  0  0  0  0
  5  6  2  0  0  0  0
M  END
$$$$
Clc1ccc2c(c1)NCN(S2(=O)=O)C
 OpenBabel07182308452D

 15 16  0  0  1  0  0  0  0  0999 V2000
    7.5301   -0.1255    0.0000 Cl  0  0  0  0  0  0  0  0  0  0  0  0
    4.6180   -1.7952    0.0000 S   0  0  0  0  0  0  0  0  0  0  0  0
    4.2055   -2.5097    0.0000 O   0  0  0  0  0  0  0  0  0  0  0  0
    5.0304   -2.5097    0.0000 O   0  0  0  0  0  0  0  0  0  0  0  0
    3.9036   -1.3828    0.0000 N   0  0  0  0  0  0  0  0  0  0  0  0
    4.6180   -0.1454    0.0000 N   0  0  0  0  0  0  0  0  0  0  0  0
    3.9036   -0.5578    0.0000 C   0  0  0  0  0  0  0  0  0  0  0  0
    5.3324   -1.3828    0.0000 C   0  0  0  0  0  0  0  0  0  0  0  0
    5.3324   -0.5578    0.0000 C   0  0  0  0  0  0  0  0  0  0  0  0
    3.1891   -1.7952    0.0000 C   0  0  0  0  0  0  0  0  0  0  0  0
    6.0697   -1.8238    0.0000 C   0  0  0  0  0  0  0  0  0  0  0  0
    6.0697   -0.1168    0.0000 C   0  0  0  0  0  0  0  0  0  0  0  0
    6.8172   -1.4000    0.0000 C   0  0  0  0  0  0  0  0  0  0  0  0
    6.8172   -0.5406    0.0000 C   0  0  0  0  0  0  0  0  0  0  0  0
    4.6180    0.8391    0.0000 H   0  0  0  0  0  0  0  0  0  0  0  0
  1 14  1  0  0  0  0
  2  3  2  0  0  0  0
  2  4  2  0  0  0  0
  2  5  1  0  0  0  0
  2  8  1  0  0  0  0
  5  7  1  0  0  0  0
  5 10  1  0  0  0  0
  6  7  1  0  0  0  0
  6  9  1  0  0  0  0
  6 15  1  0  0  0  0
  8  9  1  0  0  0  0
  8 11  2  0  0  0  0
  9 12  2  0  0  0  0
 11 13  1  0  0  0  0
 12 14  1  0  0  0  0
 13 14  2  0  0  0  0
M  END
$$$$
Clc1ccc2c(c1)NCNC2=O
 OpenBabel07182308452D

 14 15  0  0  1  0  0  0  0  0999 V2000
    6.7049    1.0624    0.0000 Cl  0  0  0  0  0  0  0  0  0  0  0  0
    3.7929   -1.4322    0.0000 O   0  0  0  0  0  0  0  0  0  0  0  0
    3.7929    1.0425    0.0000 N   0  0  0  0  0  0  0  0  0  0  0  0
    3.0786   -0.1949    0.0000 N   0  0  0  0  0  0  0  0  0  0  0  0
    3.0786    0.6300    0.0000 C   0  0  0  0  0  0  0  0  0  0  0  0
    4.5073    0.6300    0.0000 C   0  0  0  0  0  0  0  0  0  0  0  0
    4.5073   -0.1949    0.0000 C   0  0  0  0  0  0  0  0  0  0  0  0
    3.7929   -0.6073    0.0000 C   0  0  0  0  0  0  0  0  0  0  0  0
    5.2446   -0.6359    0.0000 C   0  0  0  0  0  0  0  0  0  0  0  0
    5.9921   -0.2121    0.0000 C   0  0  0  0  0  0  0  0  0  0  0  0
    5.2446    1.0711    0.0000 C   0  0  0  0  0  0  0  0  0  0  0  0
    5.9921    0.6472    0.0000 C   0  0  0  0  0  0  0  0  0  0  0  0
    3.7929    2.0270    0.0000 H   0  0  0  0  0  0  0  0  0  0  0  0
    2.2260   -0.6872    0.0000 H   0  0  0  0  0  0  0  0  0  0  0  0
  1 12  1  0  0  0  0
  2  8  2  0  0  0  0
  3  5  1  0  0  0  0
  3  6  1  0  0  0  0
  3 13  1  0  0  0  0
  4  5  1  0  0  0  0
  4  8  1  0  0  0  0
  4 14  1  0  0  0  0
  6  7  1  0  0  0  0
  6 11  2  0  0  0  0
  7  8  1  0  0  0  0
  7  9  2  0  0  0  0
  9 10  1  0  0  0  0
 10 12  2  0  0  0  0
 11 12  1  0  0  0  0
M  END
$$$$
Cc1nnc(s1)S
 OpenBabel07182308452D

  7  7  0  0  1  0  0  0  0  0999 V2000
   18.5874  -12.6305    0.0000 S   0  0  0  0  0  0  0  0  0  0  0  0
   19.3017  -13.0431    0.0000 C   0  0  0  0  0  0  0  0  0  0  0  0
   19.5594  -13.8259    0.0000 N   0  0  0  0  0  0  0  0  0  0  0  0
   20.3849  -13.8252    0.0000 N   0  0  0  0  0  0  0  0  0  0  0  0
   20.6393  -13.0399    0.0000 C   0  0  0  0  0  0  0  0  0  0  0  0
   19.9710  -12.5552    0.0000 S   0  0  0  0  0  0  0  0  0  0  0  0
   21.4642  -13.0213    0.0000 C   0  0  0  0  0  0  0  0  0  0  0  0
  1  2  1  0  0  0  0
  2  3  2  0  0  0  0
  2  6  1  0  0  0  0
  3  4  1  0  0  0  0
  4  5  2  0  0  0  0
  5  6  1  0  0  0  0
  5  7  1  0  0  0  0
M  END
$$$$
C=C1SCS1
 OpenBabel07182308452D

  5  5  0  0  1  0  0  0  0  0999 V2000
    5.1753   -4.8079    0.0000 C   0  0  0  0  0  0  0  0  0  0  0  0
    4.9605   -4.0104    0.0000 S   0  0  0  0  0  0  0  0  0  0  0  0
    4.1634   -4.2249    0.0000 C   0  0  0  0  0  0  0  0  0  0  0  0
    4.3775   -5.0223    0.0000 S   0  0  0  0  0  0  0  0  0  0  0  0
    3.4484   -3.8124    0.0000 C   0  0  0  0  0  0  0  0  0  0  0  0
  1  2  1  0  0  0  0
  2  3  1  0  0  0  0
  3  4  1  0  0  0  0
  3  5  2  0  0  0  0
  4  1  1  0  0  0  0
M  END
$$$$
NC1[C@H]2SCC=CN2C1=O
 OpenBabel07182308452D

 12 13  0  0  1  0  0  0  0  0999 V2000
    5.6654   -0.5339    0.0000 S   0  0  0  0  0  0  0  0  0  0  0  0
    7.7938    1.2916    0.0000 O   0  0  0  0  0  0  0  0  0  0  0  0
    6.3798    0.7036    0.0000 N   0  0  0  0  0  0  0  0  0  0  0  0
    8.0367   -0.1265    0.0000 N   0  0  0  0  0  0  0  0  0  0  0  0
    7.2117   -0.1248    0.0000 C   0  0  3  0  0  0  0  0  0  0  0  0
    6.3798   -0.1214    0.0000 C   0  0  1  0  0  0  0  0  0  0  0  0
    7.2117    0.7070    0.0000 C   0  0  0  0  0  0  0  0  0  0  0  0
    5.6654    1.1161    0.0000 C   0  0  0  0  0  0  0  0  0  0  0  0
    4.9508    0.7036    0.0000 C   0  0  0  0  0  0  0  0  0  0  0  0
    4.9508   -0.1214    0.0000 C   0  0  0  0  0  0  0  0  0  0  0  0
    6.5599   -0.7991    0.0000 H   0  0  0  0  0  0  0  0  0  0  0  0
    8.5307    0.7251    0.0000 H   0  0  0  0  0  0  0  0  0  0  0  0
  1  6  1  0  0  0  0
  1 10  1  0  0  0  0
  2  7  2  0  0  0  0
  3  6  1  0  0  0  0
  3  7  1  0  0  0  0
  3  8  1  0  0  0  0
  4  5  1  0  0  0  0
  4 12  1  0  0  0  0
  5  6  1  0  0  0  0
  5  7  1  0  0  0  0
  6 11  1  6  0  0  0
  8  9  2  0  0  0  0
  9 10  1  0  0  0  0
M  END
$$$$
C1=CCC=CC1
 OpenBabel07182308452D

  6  6  0  0  1  0  0  0  0  0999 V2000
    7.3842   -1.1822    0.0000 C   0  0  0  0  0  0  0  0  0  0  0  0
    7.5994   -0.3858    0.0000 C   0  0  0  0  0  0  0  0  0  0  0  0
    7.9664   -1.7668    0.0000 C   0  0  0  0  0  0  0  0  0  0  0  0
    8.7637   -1.5550    0.0000 C   0  0  0  0  0  0  0  0  0  0  0  0
    8.3967   -0.1739    0.0000 C   0  0  0  0  0  0  0  0  0  0  0  0
    8.9789   -0.7585    0.0000 C   0  0  0  0  0  0  0  0  0  0  0  0
  1  2  1  0  0  0  0
  1  3  2  0  0  0  0
  2  5  1  0  0  0  0
  3  4  1  0  0  0  0
  4  6  1  0  0  0  0
  5  6  2  0  0  0  0
M  END
$$$$
C[NH+]1CCCCC1
 OpenBabel07182308452D

  7  7  0  0  0  0  0  0  0  0999 V2000
    3.4631    0.8924    0.0000 N   0  3  0  0  0  0  0  0  0  0  0  0
    4.1713    0.4674    0.0000 C   0  0  0  0  0  0  0  0  0  0  0  0
    3.4702    1.7139    0.0000 C   0  0  0  0  0  0  0  0  0  0  0  0
    3.4667   -0.0885    0.0000 C   0  0  0  0  0  0  0  0  0  0  0  0
    4.8901    0.8711    0.0000 C   0  0  0  0  0  0  0  0  0  0  0  0
    4.1890    2.1210    0.0000 C   0  0  0  0  0  0  0  0  0  0  0  0
    4.9007    1.6961    0.0000 C   0  0  0  0  0  0  0  0  0  0  0  0
  1  2  1  0  0  0  0
  1  3  1  0  0  0  0
  1  4  1  0  0  0  0
  2  5  1  0  0  0  0
  3  6  1  0  0  0  0
  5  7  1  0  0  0  0
  6  7  1  0  0  0  0
M  CHG  1   1   1
M  END
$$$$
C[N+]1(C)CCNCC1
 OpenBabel07182308452D

  8  8  0  0  1  0  0  0  0  0999 V2000
   10.4176    0.2498    0.0000 N   0  0  0  0  0  0  0  0  0  0  0  0
   12.0676    0.2498    0.0000 N   0  3  0  0  0  0  0  0  0  0  0  0
   10.8301   -0.4647    0.0000 C   0  0  0  0  0  0  0  0  0  0  0  0
   10.8301    0.9643    0.0000 C   0  0  0  0  0  0  0  0  0  0  0  0
   11.6551   -0.4647    0.0000 C   0  0  0  0  0  0  0  0  0  0  0  0
   11.6551    0.9643    0.0000 C   0  0  0  0  0  0  0  0  0  0  0  0
   12.7821   -0.1627    0.0000 C   0  0  0  0  0  0  0  0  0  0  0  0
   12.7821    0.6623    0.0000 C   0  0  0  0  0  0  0  0  0  0  0  0
  1  3  1  0  0  0  0
  1  4  1  0  0  0  0
  2  5  1  0  0  0  0
  2  6  1  0  0  0  0
  2  7  1  0  0  0  0
  2  8  1  0  0  0  0
  3  5  1  0  0  0  0
  4  6  1  0  0  0  0
M  CHG  1   2   1
M  END
$$$$
O=C1[C@@H](N)CCCN2N1CCCC2
 OpenBabel07182308452D

 14 15  0  0  1  0  0  0  0  0999 V2000
    5.8928    2.0873    0.0000 O   0  0  0  0  0  0  0  0  0  0  0  0
    3.7611    2.6017    0.0000 N   0  0  3  0  0  0  0  0  0  0  0  0
    4.5044    2.2437    0.0000 N   0  0  0  0  0  0  0  0  0  0  0  0
    6.2356    3.5896    0.0000 N   0  0  0  0  0  0  0  0  0  0  0  0
    4.5818    1.3878    0.0000 C   0  0  0  0  0  0  0  0  0  0  0  0
    5.4313    3.4060    0.0000 C   0  0  1  0  0  0  0  0  0  0  0  0
    3.0436    2.1286    0.0000 C   0  0  0  0  0  0  0  0  0  0  0  0
    3.5775    3.4060    0.0000 C   0  0  0  0  0  0  0  0  0  0  0  0
    3.8756    0.8984    0.0000 C   0  0  0  0  0  0  0  0  0  0  0  0
    4.9169    4.0511    0.0000 C   0  0  0  0  0  0  0  0  0  0  0  0
    3.1013    1.2712    0.0000 C   0  0  0  0  0  0  0  0  0  0  0  0
    4.0919    4.0511    0.0000 C   0  0  0  0  0  0  0  0  0  0  0  0
    5.2478    2.6017    0.0000 C   0  0  0  0  0  0  0  0  0  0  0  0
    6.9294    2.8419    0.0000 H   0  0  0  0  0  0  0  0  0  0  0  0
  1 13  2  0  0  0  0
  2  3  1  0  0  0  0
  2  7  1  0  0  0  0
  2  8  1  0  0  0  0
  3  5  1  0  0  0  0
  3 13  1  0  0  0  0
  4 14  1  0  0  0  0
  5  9  1  0  0  0  0
  6  4  1  6  0  0  0
  6 10  1  0  0  0  0
  6 13  1  0  0  0  0
  7 11  1  0  0  0  0
  8 12  1  0  0  0  0
  9 11  1  0  0  0  0
 10 12  1  0  0  0  0
M  END
$$$$
C1NCC2(C1)SCCS2
 OpenBabel07182308452D

  9 10  0  0  1  0  0  0  0  0999 V2000
    6.6536   -1.7767    0.0000 S   0  0  0  0  0  0  0  0  0  0  0  0
    7.9885   -1.7767    0.0000 S   0  0  0  0  0  0  0  0  0  0  0  0
    6.9086   -0.0222    0.0000 N   0  0  0  0  0  0  0  0  0  0  0  0
    7.3211   -1.2918    0.0000 C   0  0  0  0  0  0  0  0  0  0  0  0
    7.9885   -0.8069    0.0000 C   0  0  0  0  0  0  0  0  0  0  0  0
    7.7336   -0.0222    0.0000 C   0  0  0  0  0  0  0  0  0  0  0  0
    6.6536   -0.8069    0.0000 C   0  0  0  0  0  0  0  0  0  0  0  0
    6.9086   -2.5613    0.0000 C   0  0  0  0  0  0  0  0  0  0  0  0
    7.7336   -2.5613    0.0000 C   0  0  0  0  0  0  0  0  0  0  0  0
  1  4  1  0  0  0  0
  1  8  1  0  0  0  0
  2  4  1  0  0  0  0
  2  9  1  0  0  0  0
  3  6  1  0  0  0  0
  3  7  1  0  0  0  0
  4  5  1  0  0  0  0
  4  7  1  0  0  0  0
  5  6  1  0  0  0  0
  8  9  1  0  0  0  0
M  END
$$$$
C#C[C@]1(O)CC[C@@H]2[C@]1(C)CC[C@H]1[C@H]2CCc2c1cccc2
 OpenBabel07182308452D

 25 28  0  0  0  0  0  0  0  0999 V2000
    7.7254    1.5548    0.0000 O   0  0  0  0  0  0  0  0  0  0  0  0
    6.8116    0.5185    0.0000 C   0  0  1  0  0  0  0  0  0  0  0  0
    6.8116   -0.3064    0.0000 C   0  0  2  0  0  0  0  0  0  0  0  0
    6.0971   -0.7188    0.0000 C   0  0  2  0  0  0  0  0  0  0  0  0
    7.5921    0.7699    0.0000 C   0  0  2  0  0  0  0  0  0  0  0  0
    6.0971    0.9310    0.0000 C   0  0  0  0  0  0  0  0  0  0  0  0
    7.5921   -0.5577    0.0000 C   0  0  0  0  0  0  0  0  0  0  0  0
    5.3827    0.5185    0.0000 C   0  0  0  0  0  0  0  0  0  0  0  0
    8.0734    0.1061    0.0000 C   0  0  0  0  0  0  0  0  0  0  0  0
    6.1102   -1.5781    0.0000 C   0  0  0  0  0  0  0  0  0  0  0  0
    6.8116    1.3434    0.0000 C   0  0  0  0  0  0  0  0  0  0  0  0
    4.6321   -0.7245    0.0000 C   0  0  0  0  0  0  0  0  0  0  0  0
    5.3696   -2.0134    0.0000 C   0  0  0  0  0  0  0  0  0  0  0  0
    4.6255   -1.5838    0.0000 C   0  0  0  0  0  0  0  0  0  0  0  0
    8.2602    0.9263    0.0000 C   0  0  0  0  0  0  0  0  0  0  0  0
    3.8674   -0.2592    0.0000 C   0  0  0  0  0  0  0  0  0  0  0  0
    3.8538   -2.0372    0.0000 C   0  0  0  0  0  0  0  0  0  0  0  0
    3.0855   -0.6947    0.0000 C   0  0  0  0  0  0  0  0  0  0  0  0
    3.0785   -1.5898    0.0000 C   0  0  0  0  0  0  0  0  0  0  0  0
    9.0774    1.0528    0.0000 C   0  0  0  0  0  0  0  0  0  0  0  0
    6.0759    0.0864    0.0000 H   0  0  0  0  0  0  0  0  0  0  0  0
    5.3827   -0.3064    0.0000 C   0  0  2  0  0  0  0  0  0  0  0  0
    5.3762   -1.1312    0.0000 H   0  0  0  0  0  0  0  0  0  0  0  0
    6.8988   -1.1266    0.0000 H   0  0  0  0  0  0  0  0  0  0  0  0
    8.6348    1.8923    0.0000 H   0  0  0  0  0  0  0  0  0  0  0  0
  1 25  1  0  0  0  0
  2  3  1  1  0  0  0
  2  6  1  0  0  0  0
  2 11  1  0  0  0  0
  3  4  1  1  0  0  0
  3  7  1  0  0  0  0
  3 24  1  0  0  0  0
  4 10  1  0  0  0  0
  4 21  1  0  0  0  0
  4 22  1  6  0  0  0
  5  1  1  0  0  0  0
  5  2  1  6  0  0  0
  5  9  1  0  0  0  0
  5 15  1  0  0  0  0
  6  8  1  0  0  0  0
  7  9  1  0  0  0  0
 10 13  1  0  0  0  0
 12 14  2  0  0  0  0
 12 16  1  0  0  0  0
 13 14  1  0  0  0  0
 14 17  1  0  0  0  0
 15 20  3  0  0  0  0
 16 18  2  0  0  0  0
 17 19  2  0  0  0  0
 18 19  1  0  0  0  0
 22  8  1  0  0  0  0
 22 12  1  0  0  0  0
 22 23  1  6  0  0  0
M  END
$$$$
Ic1cc(I)cc(c1)I
 OpenBabel07182308452D

  9  9  0  0  1  0  0  0  0  0999 V2000
    3.5220    0.8250    0.0000 I   0  0  0  0  0  0  0  0  0  0  0  0
    6.3799    0.8250    0.0000 I   0  0  0  0  0  0  0  0  0  0  0  0
    4.9509   -1.6500    0.0000 I   0  0  0  0  0  0  0  0  0  0  0  0
    4.9509    0.8250    0.0000 C   0  0  0  0  0  0  0  0  0  0  0  0
    4.2365    0.4125    0.0000 C   0  0  0  0  0  0  0  0  0  0  0  0
    5.6655    0.4125    0.0000 C   0  0  0  0  0  0  0  0  0  0  0  0
    4.2365   -0.4125    0.0000 C   0  0  0  0  0  0  0  0  0  0  0  0
    5.6655   -0.4125    0.0000 C   0  0  0  0  0  0  0  0  0  0  0  0
    4.9509   -0.8250    0.0000 C   0  0  0  0  0  0  0  0  0  0  0  0
  1  5  1  0  0  0  0
  2  6  1  0  0  0  0
  3  9  1  0  0  0  0
  4  5  2  0  0  0  0
  4  6  1  0  0  0  0
  5  7  1  0  0  0  0
  6  8  2  0  0  0  0
  7  9  2  0  0  0  0
  8  9  1  0  0  0  0
M  END
$$$$
O=c1ccc2c([nH]1)c(O)ccc2
 OpenBabel07182308452D

 14 15  0  0  0  0  0  0  0  0999 V2000
   -1.0620   -0.0302    0.0000 C   0  0  0  0  0  0  0  0  0  0  0  0
   -1.7918    0.3741    0.0000 C   0  0  0  0  0  0  0  0  0  0  0  0
   -1.7918    1.1783    0.0000 C   0  0  0  0  0  0  0  0  0  0  0  0
   -1.0900    1.6338    0.0000 C   0  0  0  0  0  0  0  0  0  0  0  0
   -1.0900    2.5310    0.0000 O   0  0  0  0  0  0  0  0  0  0  0  0
   -0.3741    1.2433    0.0000 C   0  0  0  0  0  0  0  0  0  0  0  0
    0.3369    1.6571    0.0000 N   0  0  0  0  0  0  0  0  0  0  0  0
    1.0482    1.2247    0.0000 C   0  0  0  0  0  0  0  0  0  0  0  0
    1.8151    1.6664    0.0000 O   0  0  0  0  0  0  0  0  0  0  0  0
    1.0482    0.3695    0.0000 C   0  0  0  0  0  0  0  0  0  0  0  0
    0.3369   -0.0302    0.0000 C   0  0  0  0  0  0  0  0  0  0  0  0
   -0.3741    0.3881    0.0000 C   0  0  0  0  0  0  0  0  0  0  0  0
   -0.2785    2.9995    0.0000 H   0  0  0  0  0  0  0  0  0  0  0  0
    0.3463    2.6416    0.0000 H   0  0  0  0  0  0  0  0  0  0  0  0
  1 12  1  0  0  0  0
  2  1  2  0  0  0  0
  3  2  1  0  0  0  0
  3  4  2  0  0  0  0
  4  6  1  0  0  0  0
  5  4  1  0  0  0  0
  5 13  1  0  0  0  0
  6 12  2  0  0  0  0
  7  6  1  0  0  0  0
  7 14  1  0  0  0  0
  8  7  1  0  0  0  0
  8 10  1  0  0  0  0
  9  8  2  0  0  0  0
 10 11  2  0  0  0  0
 11 12  1  0  0  0  0
M  END
$$$$
N[C@@H]1CCc2c1cccc2
 OpenBabel07182308452D

 11 12  0  0  1  0  0  0  0  0999 V2000
    4.1159    0.0242    0.0000 N   0  0  0  0  0  0  0  0  0  0  0  0
    3.8597   -0.7600    0.0000 C   0  0  2  0  0  0  0  0  0  0  0  0
    4.3412   -1.4239    0.0000 C   0  0  0  0  0  0  0  0  0  0  0  0
    3.8597   -2.0878    0.0000 C   0  0  0  0  0  0  0  0  0  0  0  0
    3.0791   -1.0114    0.0000 C   0  0  0  0  0  0  0  0  0  0  0  0
    3.0791   -1.8364    0.0000 C   0  0  0  0  0  0  0  0  0  0  0  0
    2.3645   -0.5989    0.0000 C   0  0  0  0  0  0  0  0  0  0  0  0
    2.3645   -2.2489    0.0000 C   0  0  0  0  0  0  0  0  0  0  0  0
    1.6500   -1.0114    0.0000 C   0  0  0  0  0  0  0  0  0  0  0  0
    1.6500   -1.8364    0.0000 C   0  0  0  0  0  0  0  0  0  0  0  0
    3.4346    0.7833    0.0000 H   0  0  0  0  0  0  0  0  0  0  0  0
  1 11  1  0  0  0  0
  2  1  1  6  0  0  0
  2  3  1  0  0  0  0
  2  5  1  0  0  0  0
  3  4  1  0  0  0  0
  4  6  1  0  0  0  0
  5  6  1  0  0  0  0
  5  7  2  0  0  0  0
  6  8  2  0  0  0  0
  7  9  1  0  0  0  0
  8 10  1  0  0  0  0
  9 10  2  0  0  0  0
M  END
$$$$
O=C1NCC(=O)N2CCC[C@H]2C(=O)N(C)[C@@H](C)C(=O)N2[C@H](C(=O)NCC(=O)O[C@@H](C1)C)CC(=O)[C@@H](C2)C
 OpenBabel07182308452D

 42 44  0  0  0  0  0  0  0  0999 V2000
    1.1573   -0.2127    0.0000 N   0  0  0  0  0  0  0  0  0  0  0  0
    0.4450    0.2027    0.0000 C   0  0  0  0  0  0  0  0  0  0  0  0
   -0.2670    1.4391    0.0000 N   0  0  0  0  0  0  0  0  0  0  0  0
   -0.9842    1.0237    0.0000 C   0  0  0  0  0  0  0  0  0  0  0  0
   -2.5371    1.4391    0.0000 N   0  0  0  0  0  0  0  0  0  0  0  0
    0.4450    1.0237    0.0000 C   0  0  1  0  0  0  0  0  0  0  0  0
    1.1573   -1.0286    0.0000 C   0  0  2  0  0  0  0  0  0  0  0  0
   -0.2670   -1.0286    0.0000 N   0  0  0  0  0  0  0  0  0  0  0  0
   -3.8477   -1.4441    0.0000 C   0  0  0  0  0  0  0  0  0  0  0  0
   -3.2640    1.0335    0.0000 C   0  0  0  0  0  0  0  0  0  0  0  0
    0.4450   -1.4441    0.0000 C   0  0  0  0  0  0  0  0  0  0  0  0
   -4.6637   -0.9693    0.0000 C   0  0  0  0  0  0  0  0  0  0  0  0
   -1.6963   -1.0286    0.0000 C   0  0  0  0  0  0  0  0  0  0  0  0
   -4.6883    1.0533    0.0000 N   0  0  0  0  0  0  0  0  0  0  0  0
   -1.7062    1.4391    0.0000 C   0  0  1  0  0  0  0  0  0  0  0  0
   -2.4184   -1.4441    0.0000 O   0  0  0  0  0  0  0  0  0  0  0  0
    1.8694    0.2027    0.0000 C   0  0  0  0  0  0  0  0  0  0  0  0
   -0.9842   -1.4441    0.0000 C   0  0  0  0  0  0  0  0  0  0  0  0
    1.8694   -1.4540    0.0000 C   0  0  0  0  0  0  0  0  0  0  0  0
    2.5816   -0.2127    0.0000 C   0  0  2  0  0  0  0  0  0  0  0  0
    2.5816   -1.0286    0.0000 C   0  0  0  0  0  0  0  0  0  0  0  0
   -3.9614    1.4638    0.0000 C   0  0  0  0  0  0  0  0  0  0  0  0
   -3.1305   -1.0286    0.0000 C   0  0  2  0  0  0  0  0  0  0  0  0
   -0.2670   -0.2127    0.0000 O   0  0  0  0  0  0  0  0  0  0  0  0
    1.1573    1.4490    0.0000 C   0  0  0  0  0  0  0  0  0  0  0  0
   -0.9842    0.2027    0.0000 O   0  0  0  0  0  0  0  0  0  0  0  0
    3.4124   -0.2127    0.0000 C   0  0  0  0  0  0  0  0  0  0  0  0
   -3.2690    0.2077    0.0000 O   0  0  0  0  0  0  0  0  0  0  0  0
   -5.3857   -1.3797    0.0000 O   0  0  0  0  0  0  0  0  0  0  0  0
    0.4450   -2.2750    0.0000 O   0  0  0  0  0  0  0  0  0  0  0  0
   -1.6963   -0.2077    0.0000 O   0  0  0  0  0  0  0  0  0  0  0  0
    3.3086   -1.4441    0.0000 O   0  0  0  0  0  0  0  0  0  0  0  0
   -2.7794    2.2255    0.0000 C   0  0  0  0  0  0  0  0  0  0  0  0
   -0.2670    2.2650    0.0000 C   0  0  0  0  0  0  0  0  0  0  0  0
   -1.4441    2.2205    0.0000 C   0  0  0  0  0  0  0  0  0  0  0  0
   -2.1118    2.7101    0.0000 C   0  0  0  0  0  0  0  0  0  0  0  0
   -3.1305   -0.2077    0.0000 C   0  0  0  0  0  0  0  0  0  0  0  0
    2.8914    0.9330    0.0000 H   0  0  0  0  0  0  0  0  0  0  0  0
   -0.5964    1.8600    0.0000 H   0  0  0  0  0  0  0  0  0  0  0  0
    1.1512   -2.2156    0.0000 H   0  0  0  0  0  0  0  0  0  0  0  0
   -0.2654   -0.0441    0.0000 H   0  0  0  0  0  0  0  0  0  0  0  0
   -5.5416    1.5444    0.0000 H   0  0  0  0  0  0  0  0  0  0  0  0
  2  1  1  0  0  0  0
  3  6  1  0  0  0  0
  4  3  1  0  0  0  0
  5 15  1  0  0  0  0
  6  2  1  0  0  0  0
  6 25  1  1  0  0  0
  7  1  1  0  0  0  0
  7 11  1  0  0  0  0
  7 40  1  6  0  0  0
  8 11  1  0  0  0  0
  8 41  1  0  0  0  0
  9 23  1  0  0  0  0
 10  5  1  0  0  0  0
 12  9  1  0  0  0  0
 12 14  1  0  0  0  0
 13 18  1  0  0  0  0
 14 22  1  0  0  0  0
 14 42  1  0  0  0  0
 15  4  1  0  0  0  0
 15 39  1  6  0  0  0
 16 13  1  0  0  0  0
 17  1  1  0  0  0  0
 18  8  1  0  0  0  0
 19  7  1  0  0  0  0
 20 17  1  0  0  0  0
 20 38  1  6  0  0  0
 21 20  1  0  0  0  0
 21 19  1  0  0  0  0
 22 10  1  0  0  0  0
 23 16  1  0  0  0  0
 23 37  1  1  0  0  0
 24  2  2  0  0  0  0
 26  4  2  0  0  0  0
 27 20  1  0  0  0  0
 28 10  2  0  0  0  0
 29 12  2  0  0  0  0
 30 11  2  0  0  0  0
 31 13  2  0  0  0  0
 32 21  2  0  0  0  0
 33  5  1  0  0  0  0
 34  3  1  0  0  0  0
 35 15  1  0  0  0  0
 36 35  1  0  0  0  0
 36 33  1  0  0  0  0
M  END
$$$$
S[C@@H]1CN2CCC1CC2
 OpenBabel07182308452D

  9 10  0  0  0  0  0  0  0  0999 V2000
    4.5202    2.4134    0.0000 N   0  0  3  0  0  0  0  0  0  0  0  0
    3.8279    1.3303    0.0000 C   0  0  2  0  0  0  0  0  0  0  0  0
    3.8279    0.5044    0.0000 S   0  0  0  0  0  0  0  0  0  0  0  0
    3.7239    2.0721    0.0000 C   0  0  0  0  0  0  0  0  0  0  0  0
    4.6588    1.6863    0.0000 C   0  0  3  0  0  0  0  0  0  0  0  0
    5.3857    1.3451    0.0000 C   0  0  0  0  0  0  0  0  0  0  0  0
    4.7923    2.7003    0.0000 C   0  0  0  0  0  0  0  0  0  0  0  0
    5.2374    2.0920    0.0000 C   0  0  0  0  0  0  0  0  0  0  0  0
    4.5498    3.2937    0.0000 C   0  0  0  0  0  0  0  0  0  0  0  0
  1  4  1  0  0  0  0
  2  3  1  6  0  0  0
  4  2  1  0  0  0  0
  5  2  1  0  0  0  0
  6  5  1  0  0  0  0
  7  5  1  0  0  0  0
  8  6  1  0  0  0  0
  8  1  1  0  0  0  0
  9  7  1  0  0  0  0
  9  1  1  0  0  0  0
M  END
$$$$
[Al]
 OpenBabel07182308452D

  1  0  0  0  0  0  0  0  0  0999 V2000
    0.0000    0.0000    0.0000 Al  0  0  0  0  0 15  0  0  0  0  0  0
M  END
$$$$
[O-2]
 OpenBabel07182308452D

  1  0  0  0  0  0  0  0  0  0999 V2000
   -0.4125    0.0000    0.0000 O   0  6  0  0  0  0  0  0  0  0  0  0
M  CHG  1   1  -2
M  END
$$$$
O=C1CC[C@]2(C(=C1)CC[C@@H]1[C@@H]2C(=O)C[C@]2([C@H]1CCC2O)C)C
 OpenBabel07182308452D

 26 29  0  0  0  0  0  0  0  0999 V2000
   -3.2576   -1.1501    0.0000 C   0  0  0  0  0  0  0  0  0  0  0  0
   -3.2576   -1.9772    0.0000 C   0  0  0  0  0  0  0  0  0  0  0  0
   -2.5452   -0.7340    0.0000 C   0  0  0  0  0  0  0  0  0  0  0  0
   -1.8282   -1.1501    0.0000 C   0  0  1  0  0  0  0  0  0  0  0  0
   -1.8317   -1.9772    0.0000 C   0  0  0  0  0  0  0  0  0  0  0  0
   -1.1211   -2.3915    0.0000 C   0  0  0  0  0  0  0  0  0  0  0  0
   -0.4023   -1.9832    0.0000 C   0  0  0  0  0  0  0  0  0  0  0  0
   -1.1141   -0.7372    0.0000 C   0  0  2  0  0  0  0  0  0  0  0  0
   -0.3974   -1.1597    0.0000 C   0  0  2  0  0  0  0  0  0  0  0  0
   -0.3839    0.5011    0.0000 C   0  0  0  0  0  0  0  0  0  0  0  0
   -1.1104    0.0925    0.0000 C   0  0  0  0  0  0  0  0  0  0  0  0
    0.3327    0.0784    0.0000 C   0  0  1  0  0  0  0  0  0  0  0  0
    0.3184   -0.7504    0.0000 C   0  0  1  0  0  0  0  0  0  0  0  0
    1.1025   -1.0202    0.0000 C   0  0  0  0  0  0  0  0  0  0  0  0
    1.6015   -0.3578    0.0000 C   0  0  0  0  0  0  0  0  0  0  0  0
    1.1256    0.3211    0.0000 C   0  0  3  0  0  0  0  0  0  0  0  0
   -3.9700   -2.3884    0.0000 O   0  0  0  0  0  0  0  0  0  0  0  0
   -2.5447   -2.3793    0.0000 C   0  0  0  0  0  0  0  0  0  0  0  0
   -1.8364   -0.3273    0.0000 C   0  0  0  0  0  0  0  0  0  0  0  0
   -1.1188   -1.5567    0.0000 H   0  0  0  0  0  0  0  0  0  0  0  0
   -1.8196    0.5093    0.0000 O   0  0  0  0  0  0  0  0  0  0  0  0
   -0.4058   -0.3365    0.0000 H   0  0  0  0  0  0  0  0  0  0  0  0
    0.3254    0.9020    0.0000 C   0  0  0  0  0  0  0  0  0  0  0  0
    0.3116   -1.5704    0.0000 H   0  0  0  0  0  0  0  0  0  0  0  0
    1.9157    0.5363    0.0000 O   0  0  0  0  0  0  0  0  0  0  0  0
    2.6044   -0.1468    0.0000 H   0  0  0  0  0  0  0  0  0  0  0  0
  1  2  1  0  0  0  0
  1  3  1  0  0  0  0
  2 17  2  0  0  0  0
  2 18  1  0  0  0  0
  4  3  1  0  0  0  0
  4 19  1  0  0  0  0
  4  5  1  0  0  0  0
  4  8  1  6  0  0  0
  5 18  2  0  0  0  0
  5  6  1  0  0  0  0
  6  7  1  0  0  0  0
  7  9  1  0  0  0  0
  8  9  1  1  0  0  0
  8 20  1  0  0  0  0
  8 11  1  0  0  0  0
  9 22  1  0  0  0  0
  9 13  1  6  0  0  0
 10 11  1  0  0  0  0
 11 21  2  0  0  0  0
 12 23  1  0  0  0  0
 12 10  1  0  0  0  0
 12 13  1  1  0  0  0
 13 14  1  0  0  0  0
 13 24  1  6  0  0  0
 14 15  1  0  0  0  0
 15 16  1  0  0  0  0
 16 12  1  0  0  0  0
 16 25  1  0  0  0  0
 25 26  1  0  0  0  0
M  END
$$$$
[O-]C(=O)O
 OpenBabel07182308452D

  5  4  0  0  0  0  0  0  0  0999 V2000
    0.4429    1.2375    0.0000 O   0  0  0  0  0  0  0  0  0  0  0  0
    1.8719    1.2375    0.0000 O   0  5  0  0  0  0  0  0  0  0  0  0
    1.1575    0.0000    0.0000 O   0  0  0  0  0  0  0  0  0  0  0  0
    1.1575    0.8250    0.0000 C   0  0  0  0  0  0  0  0  0  0  0  0
    0.4428    2.1745    0.0000 H   0  0  0  0  0  0  0  0  0  0  0  0
  1  4  1  0  0  0  0
  1  5  1  0  0  0  0
  2  4  1  0  0  0  0
  3  4  2  0  0  0  0
M  CHG  1   2  -1
M  END
$$$$
O[C@H]1CC[C@@H]2[C@@H](C1)C[C@@H]1N(C2)CCc2c1[nH]c1c2cccc1
 OpenBabel07182308452D

 27 31  0  0  1  0  0  0  0  0999 V2000
    7.4130   -1.6490    0.0000 O   0  0  0  0  0  0  0  0  0  0  0  0
    5.5496    1.6862    0.0000 N   0  0  3  0  0  0  0  0  0  0  0  0
    3.5951    0.7958    0.0000 N   0  0  0  0  0  0  0  0  0  0  0  0
    6.0711    0.1221    0.0000 C   0  0  2  0  0  0  0  0  0  0  0  0
    6.6265    0.7388    0.0000 C   0  0  2  0  0  0  0  0  0  0  0  0
    5.2606    0.3008    0.0000 C   0  0  0  0  0  0  0  0  0  0  0  0
    5.0164    1.0940    0.0000 C   0  0  1  0  0  0  0  0  0  0  0  0
    6.3255   -0.7041    0.0000 C   0  0  0  0  0  0  0  0  0  0  0  0
    6.3639    1.5260    0.0000 C   0  0  0  0  0  0  0  0  0  0  0  0
    7.4746    0.5721    0.0000 C   0  0  0  0  0  0  0  0  0  0  0  0
    7.1696   -0.8904    0.0000 C   0  0  2  0  0  0  0  0  0  0  0  0
    7.7481   -0.2479    0.0000 C   0  0  0  0  0  0  0  0  0  0  0  0
    4.2371    1.2597    0.0000 C   0  0  0  0  0  0  0  0  0  0  0  0
    5.3034    2.4438    0.0000 C   0  0  0  0  0  0  0  0  0  0  0  0
    3.9909    2.0174    0.0000 C   0  0  0  0  0  0  0  0  0  0  0  0
    4.5240    2.6095    0.0000 C   0  0  0  0  0  0  0  0  0  0  0  0
    3.1989    2.0153    0.0000 C   0  0  0  0  0  0  0  0  0  0  0  0
    2.9547    1.2619    0.0000 C   0  0  0  0  0  0  0  0  0  0  0  0
    2.6558    2.6364    0.0000 C   0  0  0  0  0  0  0  0  0  0  0  0
    2.1507    1.0772    0.0000 C   0  0  0  0  0  0  0  0  0  0  0  0
    1.8477    2.4705    0.0000 C   0  0  0  0  0  0  0  0  0  0  0  0
    1.5935    1.6856    0.0000 C   0  0  0  0  0  0  0  0  0  0  0  0
    5.6391   -0.3466    0.0000 H   0  0  0  0  0  0  0  0  0  0  0  0
    7.0474    1.2174    0.0000 H   0  0  0  0  0  0  0  0  0  0  0  0
    4.5863    0.6236    0.0000 H   0  0  0  0  0  0  0  0  0  0  0  0
    6.7613   -2.3675    0.0000 H   0  0  0  0  0  0  0  0  0  0  0  0
    3.5934   -0.1887    0.0000 H   0  0  0  0  0  0  0  0  0  0  0  0
  1 26  1  0  0  0  0
  2  9  1  0  0  0  0
  2 14  1  0  0  0  0
  3 13  1  0  0  0  0
  3 18  1  0  0  0  0
  3 27  1  0  0  0  0
  4  5  1  6  0  0  0
  4  6  1  0  0  0  0
  4  8  1  0  0  0  0
  4 23  1  0  0  0  0
  5  9  1  0  0  0  0
  5 10  1  0  0  0  0
  5 24  1  1  0  0  0
  6  7  1  0  0  0  0
  7  2  1  6  0  0  0
  7 13  1  0  0  0  0
  7 25  1  0  0  0  0
  8 11  1  0  0  0  0
 10 12  1  0  0  0  0
 11  1  1  6  0  0  0
 11 12  1  0  0  0  0
 13 15  2  0  0  0  0
 14 16  1  0  0  0  0
 15 16  1  0  0  0  0
 15 17  1  0  0  0  0
 17 18  1  0  0  0  0
 17 19  2  0  0  0  0
 18 20  2  0  0  0  0
 19 21  1  0  0  0  0
 20 22  1  0  0  0  0
 21 22  2  0  0  0  0
M  END
$$$$
O=c1cccc2c(c1)CCCc1c2cccc1
 OpenBabel07182308452D

 17 19  0  0  1  0  0  0  0  0999 V2000
   -0.1434   -0.2174    0.0000 C   0  0  0  0  0  0  0  0  0  0  0  0
   -0.9677   -0.3968    0.0000 C   0  0  0  0  0  0  0  0  0  0  0  0
    0.4839   -0.7115    0.0000 C   0  0  0  0  0  0  0  0  0  0  0  0
    1.2022   -0.2902    0.0000 C   0  0  0  0  0  0  0  0  0  0  0  0
   -1.6029    0.1310    0.0000 C   0  0  0  0  0  0  0  0  0  0  0  0
    1.9252   -0.7115    0.0000 C   0  0  0  0  0  0  0  0  0  0  0  0
    0.2030    0.5215    0.0000 C   0  0  0  0  0  0  0  0  0  0  0  0
    0.4839   -1.5314    0.0000 C   0  0  0  0  0  0  0  0  0  0  0  0
   -1.6029    0.9430    0.0000 C   0  0  0  0  0  0  0  0  0  0  0  0
   -1.3194   -1.1334    0.0000 C   0  0  0  0  0  0  0  0  0  0  0  0
    1.9252   -1.5314    0.0000 C   0  0  0  0  0  0  0  0  0  0  0  0
   -0.1434    1.2867    0.0000 C   0  0  0  0  0  0  0  0  0  0  0  0
   -0.9468    1.4739    0.0000 C   0  0  0  0  0  0  0  0  0  0  0  0
    1.2022   -1.9531    0.0000 C   0  0  0  0  0  0  0  0  0  0  0  0
   -0.1434   -2.0545    0.0000 C   0  0  0  0  0  0  0  0  0  0  0  0
   -2.3575    1.2867    0.0000 O   0  0  0  0  0  0  0  0  0  0  0  0
   -0.9677   -1.8668    0.0000 C   0  0  0  0  0  0  0  0  0  0  0  0
  2  1  1  0  0  0  0
  3  1  1  0  0  0  0
  4  3  1  0  0  0  0
  5  2  2  0  0  0  0
  6  4  2  0  0  0  0
  6 11  1  0  0  0  0
  7  1  2  0  0  0  0
  8  3  2  0  0  0  0
  9  5  1  0  0  0  0
 10  2  1  0  0  0  0
 11 14  2  0  0  0  0
 12  7  1  0  0  0  0
 13 12  2  0  0  0  0
 13  9  1  0  0  0  0
 14  8  1  0  0  0  0
 15  8  1  0  0  0  0
 16  9  2  0  0  0  0
 17 10  1  0  0  0  0
 17 15  1  0  0  0  0
M  END
$$$$
O=C1CC[C@]2(C(=C1)[C@@H]1C[C@@H]1[C@@H]1[C@@H]2CC[C@]2([C@H]1[C@@H]1C[C@@H]1[C@]12CCC(=O)O1)C)C
 OpenBabel07182308452D

 34 40  0  0  1  0  0  0  0  0999 V2000
    3.3963   -1.6419    0.0000 O   0  0  0  0  0  0  0  0  0  0  0  0
    3.6170   -3.0361    0.0000 O   0  0  0  0  0  0  0  0  0  0  0  0
    6.8101    3.0361    0.0000 O   0  0  0  0  0  0  0  0  0  0  0  0
    3.1514    0.0426    0.0000 C   0  0  2  0  0  0  0  0  0  0  0  0
    2.3593    0.0426    0.0000 C   0  0  1  0  0  0  0  0  0  0  0  0
    2.1146   -0.7108    0.0000 C   0  0  1  0  0  0  0  0  0  0  0  0
    3.3963   -0.7108    0.0000 C   0  0  1  0  0  0  0  0  0  0  0  0
    3.6940    0.6641    0.0000 C   0  0  2  0  0  0  0  0  0  0  0  0
    2.7553   -1.1763    0.0000 C   0  0  1  0  0  0  0  0  0  0  0  0
    1.5842   -0.1221    0.0000 C   0  0  0  0  0  0  0  0  0  0  0  0
    3.4095    1.4751    0.0000 C   0  0  2  0  0  0  0  0  0  0  0  0
    4.5023    0.4988    0.0000 C   0  0  1  0  0  0  0  0  0  0  0  0
    3.9747    2.1225    0.0000 C   0  0  1  0  0  0  0  0  0  0  0  0
    4.2005   -0.8947    0.0000 C   0  0  0  0  0  0  0  0  0  0  0  0
    3.1312    2.2886    0.0000 C   0  0  0  0  0  0  0  0  0  0  0  0
    5.0822    1.1330    0.0000 C   0  0  2  0  0  0  0  0  0  0  0  0
    4.7573   -0.2858    0.0000 C   0  0  0  0  0  0  0  0  0  0  0  0
    2.1146   -1.6419    0.0000 C   0  0  0  0  0  0  0  0  0  0  0  0
    4.8167    1.9503    0.0000 C   0  0  0  0  0  0  0  0  0  0  0  0
    3.8838   -1.3350    0.0000 C   0  0  0  0  0  0  0  0  0  0  0  0
    5.9550    0.9334    0.0000 C   0  0  0  0  0  0  0  0  0  0  0  0
    2.3593   -2.3953    0.0000 C   0  0  0  0  0  0  0  0  0  0  0  0
    5.3270    0.3797    0.0000 C   0  0  0  0  0  0  0  0  0  0  0  0
    3.1514   -2.3953    0.0000 C   0  0  0  0  0  0  0  0  0  0  0  0
    5.4054    2.6248    0.0000 C   0  0  0  0  0  0  0  0  0  0  0  0
    6.5590    1.5940    0.0000 C   0  0  0  0  0  0  0  0  0  0  0  0
    6.2824    2.4455    0.0000 C   0  0  0  0  0  0  0  0  0  0  0  0
    2.8892    0.6194    0.0000 H   0  0  0  0  0  0  0  0  0  0  0  0
    2.2932    0.6727    0.0000 H   0  0  0  0  0  0  0  0  0  0  0  0
    1.6906   -1.1817    0.0000 H   0  0  0  0  0  0  0  0  0  0  0  0
    4.1107    1.1415    0.0000 H   0  0  0  0  0  0  0  0  0  0  0  0
    2.8108    1.2677    0.0000 H   0  0  0  0  0  0  0  0  0  0  0  0
    5.1216    0.3647    0.0000 H   0  0  0  0  0  0  0  0  0  0  0  0
    4.0994    2.7439    0.0000 H   0  0  0  0  0  0  0  0  0  0  0  0
  1 24  1  0  0  0  0
  2 24  2  0  0  0  0
  3 27  2  0  0  0  0
  4  5  1  1  0  0  0
  4 28  1  0  0  0  0
  5  6  1  6  0  0  0
  5 10  1  0  0  0  0
  5 29  1  0  0  0  0
  6  9  1  1  0  0  0
  6 10  1  0  0  0  0
  6 30  1  0  0  0  0
  7  4  1  1  0  0  0
  7 14  1  0  0  0  0
  7 20  1  0  0  0  0
  8  4  1  1  0  0  0
  8 31  1  0  0  0  0
  9  1  1  0  0  0  0
  9  7  1  6  0  0  0
  9 18  1  0  0  0  0
 11  8  1  1  0  0  0
 11 15  1  0  0  0  0
 11 32  1  0  0  0  0
 12  8  1  6  0  0  0
 12 17  1  0  0  0  0
 12 33  1  0  0  0  0
 13 11  1  6  0  0  0
 13 15  1  0  0  0  0
 13 19  1  0  0  0  0
 13 34  1  0  0  0  0
 14 17  1  0  0  0  0
 16 12  1  6  0  0  0
 16 19  1  0  0  0  0
 16 21  1  0  0  0  0
 16 23  1  0  0  0  0
 18 22  1  0  0  0  0
 19 25  2  0  0  0  0
 21 26  1  0  0  0  0
 22 24  1  0  0  0  0
 25 27  1  0  0  0  0
 26 27  1  0  0  0  0
M  END
$$$$
C#C[C@]1(O)CC[C@@H]2[C@]1(C)CC[C@H]1[C@H]2CCC2=Cc3c(C[C@]12C)cno3
 OpenBabel07182308452D

 29 33  0  0  1  0  0  0  0  0999 V2000
    6.9568   -1.5062    0.0000 O   0  0  0  0  0  0  0  0  0  0  0  0
    2.0778    1.8006    0.0000 O   0  0  0  0  0  0  0  0  0  0  0  0
    1.5935    1.1328    0.0000 N   0  0  0  0  0  0  0  0  0  0  0  0
    6.4022    0.3306    0.0000 C   0  0  2  0  0  0  0  0  0  0  0  0
    6.4086   -0.4993    0.0000 C   0  0  2  0  0  0  0  0  0  0  0  0
    5.6772    0.7344    0.0000 C   0  0  1  0  0  0  0  0  0  0  0  0
    4.9872    0.3361    0.0000 C   0  0  1  0  0  0  0  0  0  0  0  0
    4.2973    0.7344    0.0000 C   0  0  2  0  0  0  0  0  0  0  0  0
    5.6899   -0.9142    0.0000 C   0  0  0  0  0  0  0  0  0  0  0  0
    7.1958   -0.7462    0.0000 C   0  0  2  0  0  0  0  0  0  0  0  0
    4.9745   -0.4937    0.0000 C   0  0  0  0  0  0  0  0  0  0  0  0
    7.1855    0.5895    0.0000 C   0  0  0  0  0  0  0  0  0  0  0  0
    5.6772    1.5312    0.0000 C   0  0  0  0  0  0  0  0  0  0  0  0
    7.6751   -0.0746    0.0000 C   0  0  0  0  0  0  0  0  0  0  0  0
    4.2973    1.5312    0.0000 C   0  0  0  0  0  0  0  0  0  0  0  0
    6.4148   -1.2960    0.0000 C   0  0  0  0  0  0  0  0  0  0  0  0
    4.9872    1.9296    0.0000 C   0  0  0  0  0  0  0  0  0  0  0  0
    3.5850    0.3084    0.0000 C   0  0  0  0  0  0  0  0  0  0  0  0
    4.2973   -0.0623    0.0000 C   0  0  0  0  0  0  0  0  0  0  0  0
    7.8448   -1.2083    0.0000 C   0  0  0  0  0  0  0  0  0  0  0  0
    3.5850    1.9571    0.0000 C   0  0  0  0  0  0  0  0  0  0  0  0
    2.8630    0.7178    0.0000 C   0  0  0  0  0  0  0  0  0  0  0  0
    2.8630    1.5477    0.0000 C   0  0  0  0  0  0  0  0  0  0  0  0
    2.0778    0.4649    0.0000 C   0  0  0  0  0  0  0  0  0  0  0  0
    8.4938   -1.6706    0.0000 C   0  0  0  0  0  0  0  0  0  0  0  0
    6.4623    0.9651    0.0000 H   0  0  0  0  0  0  0  0  0  0  0  0
    6.2267    1.0574    0.0000 H   0  0  0  0  0  0  0  0  0  0  0  0
    4.4329    0.0216    0.0000 H   0  0  0  0  0  0  0  0  0  0  0  0
    6.0100   -1.7169    0.0000 H   0  0  0  0  0  0  0  0  0  0  0  0
  1 29  1  0  0  0  0
  2  3  1  0  0  0  0
  2 23  1  0  0  0  0
  3 24  2  0  0  0  0
  4  5  1  1  0  0  0
  4 12  1  0  0  0  0
  4 26  1  0  0  0  0
  5  9  1  0  0  0  0
  5 10  1  1  0  0  0
  5 16  1  0  0  0  0
  6  4  1  1  0  0  0
  6 13  1  0  0  0  0
  6 27  1  0  0  0  0
  7  6  1  1  0  0  0
  7 11  1  0  0  0  0
  7 28  1  0  0  0  0
  8  7  1  1  0  0  0
  8 15  1  0  0  0  0
  8 18  1  0  0  0  0
  8 19  1  0  0  0  0
  9 11  1  0  0  0  0
 10  1  1  0  0  0  0
 10 14  1  0  0  0  0
 10 20  1  1  0  0  0
 12 14  1  0  0  0  0
 13 17  1  0  0  0  0
 15 17  1  0  0  0  0
 15 21  2  0  0  0  0
 18 22  1  0  0  0  0
 20 25  3  0  0  0  0
 21 23  1  0  0  0  0
 22 23  2  0  0  0  0
 22 24  1  0  0  0  0
M  END
$$$$
Clc1cccc(c1N)Cl
 OpenBabel07182308452D

 11 11  0  0  1  0  0  0  0  0999 V2000
    5.2224    1.8794    0.0000 Cl  0  0  0  0  0  0  0  0  0  0  0  0
    2.3645    1.8794    0.0000 Cl  0  0  0  0  0  0  0  0  0  0  0  0
    3.7935    2.7044    0.0000 N   0  0  0  0  0  0  0  0  0  0  0  0
    3.7935    0.2294    0.0000 C   0  0  0  0  0  0  0  0  0  0  0  0
    3.0791    0.6419    0.0000 C   0  0  0  0  0  0  0  0  0  0  0  0
    4.5080    0.6419    0.0000 C   0  0  0  0  0  0  0  0  0  0  0  0
    4.5080    1.4669    0.0000 C   0  0  0  0  0  0  0  0  0  0  0  0
    3.0791    1.4669    0.0000 C   0  0  0  0  0  0  0  0  0  0  0  0
    3.7935    1.8794    0.0000 C   0  0  0  0  0  0  0  0  0  0  0  0
    4.6461    3.1966    0.0000 H   0  0  0  0  0  0  0  0  0  0  0  0
    2.9409    3.1966    0.0000 H   0  0  0  0  0  0  0  0  0  0  0  0
  1  7  1  0  0  0  0
  2  8  1  0  0  0  0
  3  9  1  0  0  0  0
  3 10  1  0  0  0  0
  3 11  1  0  0  0  0
  4  5  2  0  0  0  0
  4  6  1  0  0  0  0
  5  8  1  0  0  0  0
  6  7  2  0  0  0  0
  7  9  1  0  0  0  0
  8  9  2  0  0  0  0
M  END
$$$$
OCc1cccs1
 OpenBabel07182308452D

  8  8  0  0  0  0  0  0  0  0999 V2000
    5.3852   -1.3867    0.0000 C   0  0  0  0  0  0  0  0  0  0  0  0
    4.5780   -1.5575    0.0000 C   0  0  0  0  0  0  0  0  0  0  0  0
    5.7969   -2.1016    0.0000 C   0  0  0  0  0  0  0  0  0  0  0  0
    4.4910   -2.3779    0.0000 C   0  0  0  0  0  0  0  0  0  0  0  0
    3.7761   -2.7897    0.0000 C   0  0  0  0  0  0  0  0  0  0  0  0
    3.0612   -3.2015    0.0000 O   0  0  0  0  0  0  0  0  0  0  0  0
    5.2443   -2.7142    0.0000 S   0  0  0  0  0  0  0  0  0  0  0  0
    2.2216   -2.7157    0.0000 H   0  0  0  0  0  0  0  0  0  0  0  0
  2  1  1  0  0  0  0
  3  1  2  0  0  0  0
  4  2  2  0  0  0  0
  5  4  1  0  0  0  0
  6  5  1  0  0  0  0
  6  8  1  0  0  0  0
  7  3  1  0  0  0  0
  7  4  1  0  0  0  0
M  END
$$$$
O=C1C=C[C@]2(C(=C1)CC[C@@H]1[C@@H]2[C@@H](O)C[C@]2([C@H]1C[C@@H]1C2OCO1)C)C
 OpenBabel07182308452D

 29 33  0  0  0  0  0  0  0  0999 V2000
   -3.5081   -1.7624    0.0000 C   0  0  0  0  0  0  0  0  0  0  0  0
   -3.5081   -2.5881    0.0000 C   0  0  0  0  0  0  0  0  0  0  0  0
   -2.7947   -3.0009    0.0000 C   0  0  0  0  0  0  0  0  0  0  0  0
   -2.7947   -1.3497    0.0000 C   0  0  0  0  0  0  0  0  0  0  0  0
   -2.0813   -1.7624    0.0000 C   0  0  1  0  0  0  0  0  0  0  0  0
   -2.0848   -2.5881    0.0000 C   0  0  0  0  0  0  0  0  0  0  0  0
   -1.3752   -3.0016    0.0000 C   0  0  0  0  0  0  0  0  0  0  0  0
   -0.6579   -2.5942    0.0000 C   0  0  0  0  0  0  0  0  0  0  0  0
   -1.3683   -1.3504    0.0000 C   0  0  2  0  0  0  0  0  0  0  0  0
   -0.6567   -1.7699    0.0000 C   0  0  2  0  0  0  0  0  0  0  0  0
   -0.6430   -0.1204    0.0000 C   0  0  0  0  0  0  0  0  0  0  0  0
   -1.3647   -0.5263    0.0000 C   0  0  2  0  0  0  0  0  0  0  0  0
    0.0685   -0.5401    0.0000 C   0  0  1  0  0  0  0  0  0  0  0  0
    0.0600   -1.3640    0.0000 C   0  0  1  0  0  0  0  0  0  0  0  0
    0.8411   -1.6267    0.0000 C   0  0  0  0  0  0  0  0  0  0  0  0
    0.8547   -0.2936    0.0000 C   0  0  3  0  0  0  0  0  0  0  0  0
    1.3338   -0.9608    0.0000 C   0  0  2  0  0  0  0  0  0  0  0  0
    2.1165   -0.7112    0.0000 O   0  0  0  0  0  0  0  0  0  0  0  0
    2.1210    0.1100    0.0000 C   0  0  0  0  0  0  0  0  0  0  0  0
    1.3413    0.3681    0.0000 O   0  0  0  0  0  0  0  0  0  0  0  0
   -4.2234   -3.0006    0.0000 O   0  0  0  0  0  0  0  0  0  0  0  0
   -1.3757   -2.1753    0.0000 H   0  0  0  0  0  0  0  0  0  0  0  0
    0.0522   -2.1849    0.0000 H   0  0  0  0  0  0  0  0  0  0  0  0
    1.9125   -1.5390    0.0000 H   0  0  0  0  0  0  0  0  0  0  0  0
   -2.0897   -0.9367    0.0000 C   0  0  0  0  0  0  0  0  0  0  0  0
   -0.6617   -0.9416    0.0000 H   0  0  0  0  0  0  0  0  0  0  0  0
   -2.0766   -0.1080    0.0000 O   0  0  0  0  0  0  0  0  0  0  0  0
    0.0618    0.2872    0.0000 C   0  0  0  0  0  0  0  0  0  0  0  0
   -2.0692    0.8620    0.0000 H   0  0  0  0  0  0  0  0  0  0  0  0
  1  2  1  0  0  0  0
  1  4  2  0  0  0  0
  2 21  2  0  0  0  0
  2  3  1  0  0  0  0
  3  6  2  0  0  0  0
  5  4  1  0  0  0  0
  5  6  1  0  0  0  0
  5  9  1  6  0  0  0
  5 25  1  0  0  0  0
  6  7  1  0  0  0  0
  7  8  1  0  0  0  0
  8 10  1  0  0  0  0
  9 22  1  0  0  0  0
  9 10  1  1  0  0  0
 10 26  1  0  0  0  0
 10 14  1  6  0  0  0
 11 12  1  0  0  0  0
 12 27  1  0  0  0  0
 12  9  1  1  0  0  0
 13 28  1  0  0  0  0
 13 11  1  0  0  0  0
 13 14  1  1  0  0  0
 14 15  1  0  0  0  0
 14 23  1  6  0  0  0
 15 17  1  0  0  0  0
 16 13  1  0  0  0  0
 16 17  1  0  0  0  0
 17 18  1  0  0  0  0
 17 24  1  1  0  0  0
 18 19  1  0  0  0  0
 19 20  1  0  0  0  0
 20 16  1  0  0  0  0
 27 29  1  0  0  0  0
M  END
$$$$
O=c1[nH]n(c(c1)C)C
 OpenBabel07182308452D

  8  8  0  0  0  0  0  0  0  0999 V2000
   -0.1767    0.7455    0.0000 C   0  0  0  0  0  0  0  0  0  0  0  0
   -1.2567   -0.0390    0.0000 N   0  0  0  0  0  0  0  0  0  0  0  0
   -2.0537   -0.2527    0.0000 C   0  0  0  0  0  0  0  0  0  0  0  0
   -1.0018    0.7455    0.0000 C   0  0  0  0  0  0  0  0  0  0  0  0
   -1.4142    1.4599    0.0000 C   0  0  0  0  0  0  0  0  0  0  0  0
   -0.5891   -0.5240    0.0000 N   0  0  0  0  0  0  0  0  0  0  0  0
    0.0782   -0.0390    0.0000 C   0  0  0  0  0  0  0  0  0  0  0  0
    0.8751   -0.2527    0.0000 O   0  0  0  0  0  0  0  0  0  0  0  0
  1  4  2  0  0  0  0
  2  3  1  0  0  0  0
  4  2  1  0  0  0  0
  4  5  1  0  0  0  0
  6  7  1  0  0  0  0
  6  2  1  0  0  0  0
  7  1  1  0  0  0  0
  7  8  2  0  0  0  0
M  END
$$$$
O[C@@H]1C[C@@H]2C[C@@H]3N1[C@@H]1C2[C@H]([C@@]2(C1)[C@H]3N(C)c1c2cccc1)O
 OpenBabel07182308452D

 28 33  0  0  1  0  0  0  0  0999 V2000
   -3.3227   -0.4302    0.0000 C   0  0  0  0  0  0  0  0  0  0  0  0
   -3.3227   -1.2552    0.0000 C   0  0  0  0  0  0  0  0  0  0  0  0
   -2.6083   -1.6677    0.0000 C   0  0  0  0  0  0  0  0  0  0  0  0
   -1.8938   -1.2552    0.0000 C   0  0  0  0  0  0  0  0  0  0  0  0
   -1.8938   -0.4302    0.0000 C   0  0  0  0  0  0  0  0  0  0  0  0
   -2.6083   -0.0177    0.0000 C   0  0  0  0  0  0  0  0  0  0  0  0
   -1.1091   -1.5101    0.0000 N   0  0  0  0  0  0  0  0  0  0  0  0
   -0.6242   -0.8427    0.0000 C   0  0  2  0  0  0  0  0  0  0  0  0
   -1.1091   -0.1753    0.0000 C   0  0  1  0  0  0  0  0  0  0  0  0
    0.1962   -0.7565    0.0000 C   0  0  1  0  0  0  0  0  0  0  0  0
    0.5317   -0.0028    0.0000 N   0  0  3  0  0  0  0  0  0  0  0  0
    0.0468    0.6645    0.0000 C   0  0  1  0  0  0  0  0  0  0  0  0
   -0.7736    0.5783    0.0000 C   0  0  0  0  0  0  0  0  0  0  0  0
    0.9498   -1.0920    0.0000 C   0  0  0  0  0  0  0  0  0  0  0  0
    1.2854   -0.3383    0.0000 C   0  0  1  0  0  0  0  0  0  0  0  0
    2.0747   -0.2034    0.0000 C   0  0  0  0  0  0  0  0  0  0  0  0
    1.3210    0.1320    0.0000 C   0  0  1  0  0  0  0  0  0  0  0  0
    1.8687   -0.9217    0.0000 H   0  0  0  0  0  0  0  0  0  0  0  0
    0.5151    1.7688    0.0000 C   0  0  3  0  0  0  0  0  0  0  0  0
    2.0592    0.5485    0.0000 O   0  0  0  0  0  0  0  0  0  0  0  0
   -1.0679    1.7634    0.0000 C   0  0  1  0  0  0  0  0  0  0  0  0
   -0.3656    1.3790    0.0000 H   0  0  0  0  0  0  0  0  0  0  0  0
    0.1962   -1.5815    0.0000 H   0  0  0  0  0  0  0  0  0  0  0  0
   -0.5005   -1.6677    0.0000 H   0  0  0  0  0  0  0  0  0  0  0  0
   -1.1091   -2.3351    0.0000 C   0  0  0  0  0  0  0  0  0  0  0  0
   -1.6827    2.3351    0.0000 O   0  0  0  0  0  0  0  0  0  0  0  0
    2.8944    0.0552    0.0000 H   0  0  0  0  0  0  0  0  0  0  0  0
   -1.4658    3.2805    0.0000 H   0  0  0  0  0  0  0  0  0  0  0  0
  1  2  2  0  0  0  0
  1  6  1  0  0  0  0
  2  3  1  0  0  0  0
  3  4  2  0  0  0  0
  4  5  1  0  0  0  0
  4  7  1  0  0  0  0
  5  6  2  0  0  0  0
  5  9  1  0  0  0  0
  7  8  1  0  0  0  0
  7 25  1  0  0  0  0
  8  9  1  1  0  0  0
  8 24  1  0  0  0  0
  9 13  1  6  0  0  0
 10  8  1  1  0  0  0
 10 11  1  0  0  0  0
 10 14  1  0  0  0  0
 10 23  1  0  0  0  0
 12 11  1  6  0  0  0
 12 13  1  0  0  0  0
 12 19  1  0  0  0  0
 12 22  1  0  0  0  0
 14 15  1  0  0  0  0
 15 16  1  0  0  0  0
 15 18  1  1  0  0  0
 15 19  1  0  0  0  0
 16 17  1  0  0  0  0
 17 11  1  6  0  0  0
 17 20  1  0  0  0  0
 20 27  1  0  0  0  0
 21  9  1  6  0  0  0
 21 19  1  0  0  0  0
 21 26  1  0  0  0  0
 26 28  1  0  0  0  0
M  END
$$$$
O=c1[nH]cccc1N
 OpenBabel07182308452D

 11 11  0  0  0  0  0  0  0  0999 V2000
    2.0930   -1.1880    0.0000 O   0  0  0  0  0  0  0  0  0  0  0  0
    3.5220   -1.1880    0.0000 N   0  0  0  0  0  0  0  0  0  0  0  0
    2.0930    0.4620    0.0000 N   0  0  0  0  0  0  0  0  0  0  0  0
    4.2365    0.0495    0.0000 C   0  0  0  0  0  0  0  0  0  0  0  0
    3.5220    0.4620    0.0000 C   0  0  0  0  0  0  0  0  0  0  0  0
    4.2365   -0.7755    0.0000 C   0  0  0  0  0  0  0  0  0  0  0  0
    2.8075    0.0495    0.0000 C   0  0  0  0  0  0  0  0  0  0  0  0
    2.8075   -0.7755    0.0000 C   0  0  0  0  0  0  0  0  0  0  0  0
    3.5220   -2.1725    0.0000 H   0  0  0  0  0  0  0  0  0  0  0  0
    2.0930    1.4465    0.0000 H   0  0  0  0  0  0  0  0  0  0  0  0
    1.2404   -0.0303    0.0000 H   0  0  0  0  0  0  0  0  0  0  0  0
  1  8  2  0  0  0  0
  2  6  1  0  0  0  0
  2  8  1  0  0  0  0
  2  9  1  0  0  0  0
  3  7  1  0  0  0  0
  3 10  1  0  0  0  0
  3 11  1  0  0  0  0
  4  5  1  0  0  0  0
  4  6  2  0  0  0  0
  5  7  2  0  0  0  0
  7  8  1  0  0  0  0
M  END
$$$$
Nc1ncnc(n1)N
 OpenBabel07182308452D

 10 10  0  0  0  0  0  0  0  0999 V2000
    7.3659    1.4438    0.0000 N   0  0  0  0  0  0  0  0  0  0  0  0
    8.0804    0.2063    0.0000 N   0  0  0  0  0  0  0  0  0  0  0  0
    8.7949    1.4438    0.0000 N   0  0  0  0  0  0  0  0  0  0  0  0
    8.0804    2.6813    0.0000 N   0  0  0  0  0  0  0  0  0  0  0  0
    9.5094    0.2063    0.0000 N   0  0  0  0  0  0  0  0  0  0  0  0
    7.3659    0.6188    0.0000 C   0  0  0  0  0  0  0  0  0  0  0  0
    8.0804    1.8563    0.0000 C   0  0  0  0  0  0  0  0  0  0  0  0
    8.7949    0.6188    0.0000 C   0  0  0  0  0  0  0  0  0  0  0  0
    7.2278    3.1736    0.0000 H   0  0  0  0  0  0  0  0  0  0  0  0
    9.5094   -0.7782    0.0000 H   0  0  0  0  0  0  0  0  0  0  0  0
  1  6  2  0  0  0  0
  1  7  1  0  0  0  0
  2  6  1  0  0  0  0
  2  8  2  0  0  0  0
  3  7  2  0  0  0  0
  3  8  1  0  0  0  0
  4  7  1  0  0  0  0
  4  9  1  0  0  0  0
  5  8  1  0  0  0  0
  5 10  1  0  0  0  0
M  END
$$$$
Nc1cccc(n1)N
 OpenBabel07182308452D

 12 12  0  0  0  0  0  0  0  0999 V2000
    5.2223   -1.8067    0.0000 N   0  0  0  0  0  0  0  0  0  0  0  0
    3.7934   -1.8067    0.0000 N   0  0  0  0  0  0  0  0  0  0  0  0
    6.6513   -1.8067    0.0000 N   0  0  0  0  0  0  0  0  0  0  0  0
    4.5079   -0.5692    0.0000 C   0  0  0  0  0  0  0  0  0  0  0  0
    4.5079   -1.3942    0.0000 C   0  0  0  0  0  0  0  0  0  0  0  0
    5.2223   -0.1568    0.0000 C   0  0  0  0  0  0  0  0  0  0  0  0
    5.9369   -0.5692    0.0000 C   0  0  0  0  0  0  0  0  0  0  0  0
    5.9369   -1.3942    0.0000 C   0  0  0  0  0  0  0  0  0  0  0  0
    2.9408   -1.3144    0.0000 H   0  0  0  0  0  0  0  0  0  0  0  0
    3.7934   -2.7912    0.0000 H   0  0  0  0  0  0  0  0  0  0  0  0
    6.6513   -2.7912    0.0000 H   0  0  0  0  0  0  0  0  0  0  0  0
    7.5039   -1.3145    0.0000 H   0  0  0  0  0  0  0  0  0  0  0  0
  1  5  1  0  0  0  0
  1  8  2  0  0  0  0
  2  5  1  0  0  0  0
  2  9  1  0  0  0  0
  2 10  1  0  0  0  0
  3  8  1  0  0  0  0
  3 11  1  0  0  0  0
  3 12  1  0  0  0  0
  4  5  2  0  0  0  0
  4  6  1  0  0  0  0
  6  7  2  0  0  0  0
  7  8  1  0  0  0  0
M  END
$$$$
ClC(Cl)Cl
 OpenBabel07182308452D

  4  3  0  0  0  0  0  0  0  0999 V2000
    1.8595    0.9757    0.0000 C   0  0  0  0  0  0  0  0  0  0  0  0
    1.3519    0.8356    0.0000 Cl  0  0  0  0  0  0  0  0  0  0  0  0
    1.3257    1.2819    0.0000 Cl  0  0  0  0  0  0  0  0  0  0  0  0
    1.8595    0.3631    0.0000 Cl  0  0  0  0  0  0  0  0  0  0  0  0
  2  1  1  0  0  0  0
  3  1  1  0  0  0  0
  4  1  1  0  0  0  0
M  END
$$$$
O=C1CN=Cc2c(N1C)cccc2
 OpenBabel07182308452D

 13 14  0  0  0  0  0  0  0  0999 V2000
    2.6107    2.5929    0.0000 O   0  0  0  0  0  0  0  0  0  0  0  0
    2.4543    1.2046    0.0000 N   0  0  0  0  0  0  0  0  0  0  0  0
    4.3081    1.2046    0.0000 N   0  0  0  0  0  0  0  0  0  0  0  0
    3.3812    0.0423    0.0000 C   0  0  0  0  0  0  0  0  0  0  0  0
    2.6379    0.4003    0.0000 C   0  0  0  0  0  0  0  0  0  0  0  0
    4.1245    0.4003    0.0000 C   0  0  0  0  0  0  0  0  0  0  0  0
    3.4586   -0.8135    0.0000 C   0  0  0  0  0  0  0  0  0  0  0  0
    3.7937    1.8496    0.0000 C   0  0  0  0  0  0  0  0  0  0  0  0
    1.9205   -0.0728    0.0000 C   0  0  0  0  0  0  0  0  0  0  0  0
    2.9687    1.8496    0.0000 C   0  0  0  0  0  0  0  0  0  0  0  0
    2.7524   -1.3031    0.0000 C   0  0  0  0  0  0  0  0  0  0  0  0
    1.9781   -0.9302    0.0000 C   0  0  0  0  0  0  0  0  0  0  0  0
    1.6500    1.3881    0.0000 C   0  0  0  0  0  0  0  0  0  0  0  0
  1 10  2  0  0  0  0
  2  5  1  0  0  0  0
  2 10  1  0  0  0  0
  2 13  1  0  0  0  0
  3  6  2  0  0  0  0
  3  8  1  0  0  0  0
  4  5  2  0  0  0  0
  4  6  1  0  0  0  0
  4  7  1  0  0  0  0
  5  9  1  0  0  0  0
  7 11  2  0  0  0  0
  8 10  1  0  0  0  0
  9 12  2  0  0  0  0
 11 12  1  0  0  0  0
M  END
$$$$
CN1CC[C@@]23[C@@H]4[C@H]1Cc1c3c(O[C@H]2[C@H](CC4)O)ccc1
 OpenBabel07182308452D

 23 27  0  0  0  0  0  0  0  0999 V2000
    0.8545   -0.6643    0.0000 C   0  0  1  0  0  0  0  0  0  0  0  0
    0.0332   -0.6643    0.0000 C   0  0  0  0  0  0  0  0  0  0  0  0
   -0.3757   -1.3620    0.0000 C   0  0  0  0  0  0  0  0  0  0  0  0
    1.2636   -1.3842    0.0000 C   0  0  1  0  0  0  0  0  0  0  0  0
    1.2796    0.0460    0.0000 C   0  0  2  0  0  0  0  0  0  0  0  0
    0.4392   -1.8536    0.0000 O   0  0  0  0  0  0  0  0  0  0  0  0
    0.8545    0.7404    0.0000 C   0  0  1  0  0  0  0  0  0  0  0  0
   -0.3757    0.0492    0.0000 C   0  0  0  0  0  0  0  0  0  0  0  0
    0.0332    0.7689    0.0000 C   0  0  0  0  0  0  0  0  0  0  0  0
    1.2509    1.3842    0.0000 N   0  0  0  0  0  0  0  0  0  0  0  0
    1.4413   -0.6643    0.0000 C   0  0  0  0  0  0  0  0  0  0  0  0
    2.1072    0.0492    0.0000 C   0  0  0  0  0  0  0  0  0  0  0  0
   -1.1940   -1.3620    0.0000 C   0  0  0  0  0  0  0  0  0  0  0  0
    2.0977   -1.3905    0.0000 C   0  0  2  0  0  0  0  0  0  0  0  0
    2.3991    1.3842    0.0000 C   0  0  0  0  0  0  0  0  0  0  0  0
   -1.1875    0.0492    0.0000 C   0  0  0  0  0  0  0  0  0  0  0  0
    2.5162   -0.6738    0.0000 C   0  0  0  0  0  0  0  0  0  0  0  0
   -1.5967   -0.6516    0.0000 C   0  0  0  0  0  0  0  0  0  0  0  0
    2.5416   -2.1737    0.0000 O   0  0  0  0  0  0  0  0  0  0  0  0
    1.2478    2.2816    0.0000 C   0  0  0  0  0  0  0  0  0  0  0  0
    0.3821    0.0524    0.0000 H   0  0  0  0  0  0  0  0  0  0  0  0
    1.2606   -2.2816    0.0000 H   0  0  0  0  0  0  0  0  0  0  0  0
    2.0499   -3.0099    0.0000 H   0  0  0  0  0  0  0  0  0  0  0  0
  1  4  1  6  0  0  0
  1 11  1  0  0  0  0
  2  1  1  0  0  0  0
  3  2  2  0  0  0  0
  4 22  1  1  0  0  0
  5  1  1  6  0  0  0
  5 21  1  0  0  0  0
  6  4  1  0  0  0  0
  6  3  1  0  0  0  0
  7  5  1  1  0  0  0
  7  9  1  0  0  0  0
  7 10  1  0  0  0  0
  8  2  1  0  0  0  0
  9  8  1  0  0  0  0
 10 15  1  0  0  0  0
 12  5  1  0  0  0  0
 13  3  1  0  0  0  0
 14  4  1  6  0  0  0
 14 19  1  0  0  0  0
 15 11  1  0  0  0  0
 16  8  2  0  0  0  0
 16 18  1  0  0  0  0
 17 12  1  0  0  0  0
 17 14  1  0  0  0  0
 18 13  2  0  0  0  0
 19 23  1  0  0  0  0
 20 10  1  0  0  0  0
M  END
$$$$
O=C1CN=Cc2c(N1)ccc(c2)Br
 OpenBabel07182308452D

 14 15  0  0  0  0  0  0  0  0999 V2000
    2.5467   -2.3593    0.0000 Br  0  0  0  0  0  0  0  0  0  0  0  0
    2.3403    2.3593    0.0000 O   0  0  0  0  0  0  0  0  0  0  0  0
    2.1839    0.9709    0.0000 N   0  0  0  0  0  0  0  0  0  0  0  0
    4.0375    0.9709    0.0000 N   0  0  0  0  0  0  0  0  0  0  0  0
    3.1107   -0.1914    0.0000 C   0  0  0  0  0  0  0  0  0  0  0  0
    2.3674    0.1666    0.0000 C   0  0  0  0  0  0  0  0  0  0  0  0
    3.8540    0.1666    0.0000 C   0  0  0  0  0  0  0  0  0  0  0  0
    3.1881   -1.0473    0.0000 C   0  0  0  0  0  0  0  0  0  0  0  0
    3.5232    1.6159    0.0000 C   0  0  0  0  0  0  0  0  0  0  0  0
    1.6500   -0.3065    0.0000 C   0  0  0  0  0  0  0  0  0  0  0  0
    2.6982    1.6159    0.0000 C   0  0  0  0  0  0  0  0  0  0  0  0
    2.4818   -1.5367    0.0000 C   0  0  0  0  0  0  0  0  0  0  0  0
    1.7076   -1.1639    0.0000 C   0  0  0  0  0  0  0  0  0  0  0  0
    1.2241    1.1900    0.0000 H   0  0  0  0  0  0  0  0  0  0  0  0
  1 12  1  0  0  0  0
  2 11  2  0  0  0  0
  3  6  1  0  0  0  0
  3 11  1  0  0  0  0
  3 14  1  0  0  0  0
  4  7  2  0  0  0  0
  4  9  1  0  0  0  0
  5  6  2  0  0  0  0
  5  7  1  0  0  0  0
  5  8  1  0  0  0  0
  6 10  1  0  0  0  0
  8 12  2  0  0  0  0
  9 11  1  0  0  0  0
 10 13  2  0  0  0  0
 12 13  1  0  0  0  0
M  END
$$$$
O=C1CN=Cc2c(N1C)scc2
 OpenBabel07182308452D

 12 13  0  0  0  0  0  0  0  0999 V2000
    4.3908   -1.4629    0.0000 S   0  0  0  0  0  0  0  0  0  0  0  0
    1.6500   -2.2011    0.0000 O   0  0  0  0  0  0  0  0  0  0  0  0
    2.9664   -1.7330    0.0000 N   0  0  0  0  0  0  0  0  0  0  0  0
    2.1538   -0.0668    0.0000 N   0  0  0  0  0  0  0  0  0  0  0  0
    3.6048   -0.3904    0.0000 C   0  0  0  0  0  0  0  0  0  0  0  0
    3.6089   -1.2154    0.0000 C   0  0  0  0  0  0  0  0  0  0  0  0
    2.9572    0.1207    0.0000 C   0  0  0  0  0  0  0  0  0  0  0  0
    4.8689   -0.7966    0.0000 C   0  0  0  0  0  0  0  0  0  0  0  0
    4.3842   -0.1351    0.0000 C   0  0  0  0  0  0  0  0  0  0  0  0
    1.7995   -0.8120    0.0000 C   0  0  0  0  0  0  0  0  0  0  0  0
    2.1612   -1.5535    0.0000 C   0  0  0  0  0  0  0  0  0  0  0  0
    3.1541   -2.5364    0.0000 C   0  0  0  0  0  0  0  0  0  0  0  0
  1  6  1  0  0  0  0
  1  8  1  0  0  0  0
  2 11  2  0  0  0  0
  3  6  1  0  0  0  0
  3 11  1  0  0  0  0
  3 12  1  0  0  0  0
  4  7  2  0  0  0  0
  4 10  1  0  0  0  0
  5  6  2  0  0  0  0
  5  7  1  0  0  0  0
  5  9  1  0  0  0  0
  8  9  2  0  0  0  0
 10 11  1  0  0  0  0
M  END
$$$$
[Si+4]
 OpenBabel07182308452D

  1  0  0  0  0  0  0  0  0  0999 V2000
    4.8290   -6.4384    0.0000 Si  0  0  0  0  0  0  0  0  0  0  0  0
M  CHG  1   1   4
M  END
$$$$
[Al+3]
 OpenBabel07182308452D

  1  0  0  0  0  0  0  0  0  0999 V2000
   -4.3911   -6.4384    0.0000 Al  0  1  0  0  0 15  0  0  0  0  0  0
M  CHG  1   1   3
M  END
$$$$
[OH-]
 OpenBabel07182308452D

  2  1  0  0  0  0  0  0  0  0999 V2000
    5.9815   -5.7730    0.0000 O   0  5  0  0  0  0  0  0  0  0  0  0
    6.6961   -6.1856    0.0000 H   0  0  0  0  0  0  0  0  0  0  0  0
  1  2  1  0  0  0  0
M  CHG  1   1  -1
M  END
$$$$
[O-][Si](O)([O-])[O-]
 OpenBabel07182308452D

  5  4  0  0  0  0  0  0  0  0999 V2000
   -0.1748   -4.4270    0.0000 O   0  5  0  0  0  0  0  0  0  0  0  0
   -0.1748   -3.6020    0.0000 Si  0  0  0  0  0  0  0  0  0  0  0  0
   -0.9998   -3.6020    0.0000 O   0  5  0  0  0  0  0  0  0  0  0  0
    0.6502   -3.6020    0.0000 O   0  5  0  0  0  0  0  0  0  0  0  0
   -0.1748   -2.7770    0.0000 O   0  0  0  0  0  0  0  0  0  0  0  0
  1  2  1  0  0  0  0
  2  3  1  0  0  0  0
  2  4  1  0  0  0  0
  2  5  1  0  0  0  0
M  CHG  3   1  -1   3  -1   4  -1
M  END
$$$$
[O-][SiH]([O-])[O-]
 OpenBabel07182308452D

  4  3  0  0  0  0  0  0  0  0999 V2000
    0.5397   -2.3645    0.0000 Si  0  0  0  0  0  0  0  0  0  0  0  0
    1.2542   -1.9520    0.0000 O   0  5  0  0  0  0  0  0  0  0  0  0
    0.1272   -1.6500    0.0000 O   0  5  0  0  0  0  0  0  0  0  0  0
    0.9522   -3.0789    0.0000 O   0  5  0  0  0  0  0  0  0  0  0  0
  1  2  1  0  0  0  0
  1  3  1  0  0  0  0
  1  4  1  0  0  0  0
M  CHG  3   2  -1   3  -1   4  -1
M  END
$$$$
CN1CCOC[C@@H]1C
 OpenBabel07182308452D

  8  8  0  0  0  0  0  0  0  0999 V2000
    0.3572    0.2061    0.0000 C   0  0  0  0  0  0  0  0  0  0  0  0
    0.3572   -0.6184    0.0000 C   0  0  1  0  0  0  0  0  0  0  0  0
    1.0719    0.6185    0.0000 O   0  0  0  0  0  0  0  0  0  0  0  0
    1.0719   -1.0307    0.0000 N   0  0  0  0  0  0  0  0  0  0  0  0
   -0.3573   -1.0307    0.0000 C   0  0  0  0  0  0  0  0  0  0  0  0
    1.7866    0.2061    0.0000 C   0  0  0  0  0  0  0  0  0  0  0  0
    1.7866   -0.6184    0.0000 C   0  0  0  0  0  0  0  0  0  0  0  0
    1.0719   -1.8553    0.0000 C   0  0  0  0  0  0  0  0  0  0  0  0
  1  2  1  0  0  0  0
  1  3  1  0  0  0  0
  2  4  1  0  0  0  0
  2  5  1  1  0  0  0
  3  6  1  0  0  0  0
  4  7  1  0  0  0  0
  4  8  1  0  0  0  0
  6  7  1  0  0  0  0
M  END
$$$$
Cc1ccncn1
 OpenBabel07182308452D

  7  7  0  0  0  0  0  0  0  0999 V2000
    3.1895    2.1904    0.0000 N   0  0  0  0  0  0  0  0  0  0  0  0
    3.9041    0.9529    0.0000 N   0  0  0  0  0  0  0  0  0  0  0  0
    3.1895    1.3654    0.0000 C   0  0  0  0  0  0  0  0  0  0  0  0
    3.9041    2.6029    0.0000 C   0  0  0  0  0  0  0  0  0  0  0  0
    4.6185    2.1904    0.0000 C   0  0  0  0  0  0  0  0  0  0  0  0
    4.6185    1.3654    0.0000 C   0  0  0  0  0  0  0  0  0  0  0  0
    3.9041    3.4280    0.0000 C   0  0  0  0  0  0  0  0  0  0  0  0
  1  3  1  0  0  0  0
  1  4  2  0  0  0  0
  2  3  2  0  0  0  0
  2  6  1  0  0  0  0
  4  5  1  0  0  0  0
  4  7  1  0  0  0  0
  5  6  2  0  0  0  0
M  END
$$$$
Cc1ncnc(c1)C
 OpenBabel07182308452D

  8  8  0  0  0  0  0  0  0  0999 V2000
    3.9041    0.9529    0.0000 N   0  0  0  0  0  0  0  0  0  0  0  0
    3.1895    2.1904    0.0000 N   0  0  0  0  0  0  0  0  0  0  0  0
    3.1895    1.3654    0.0000 C   0  0  0  0  0  0  0  0  0  0  0  0
    4.6185    1.3654    0.0000 C   0  0  0  0  0  0  0  0  0  0  0  0
    3.9041    2.6029    0.0000 C   0  0  0  0  0  0  0  0  0  0  0  0
    4.6185    2.1904    0.0000 C   0  0  0  0  0  0  0  0  0  0  0  0
    5.3330    0.9529    0.0000 C   0  0  0  0  0  0  0  0  0  0  0  0
    3.9041    3.4280    0.0000 C   0  0  0  0  0  0  0  0  0  0  0  0
  1  3  1  0  0  0  0
  1  4  2  0  0  0  0
  2  3  2  0  0  0  0
  2  5  1  0  0  0  0
  4  6  1  0  0  0  0
  4  7  1  0  0  0  0
  5  6  2  0  0  0  0
  5  8  1  0  0  0  0
M  END
$$$$
O[C@@H]1CC[C@]2([C@@H](C1)C[C@@H]([C@@H]1[C@@H]2CC[C@]2([C@H]1CCC2)C)O)C
 OpenBabel07182308452D

 28 31  0  0  1  0  0  0  0  0999 V2000
    6.5590   -2.5194    0.0000 O   0  0  0  0  0  0  0  0  0  0  0  0
    2.0919   -2.5366    0.0000 O   0  0  0  0  0  0  0  0  0  0  0  0
    6.5410   -0.8436    0.0000 C   0  0  2  0  0  0  0  0  0  0  0  0
    6.5410   -0.0186    0.0000 C   0  0  1  0  0  0  0  0  0  0  0  0
    5.8265   -1.2561    0.0000 C   0  0  1  0  0  0  0  0  0  0  0  0
    5.1122   -0.8436    0.0000 C   0  0  1  0  0  0  0  0  0  0  0  0
    4.3614   -1.2617    0.0000 C   0  0  2  0  0  0  0  0  0  0  0  0
    7.3215    0.2327    0.0000 C   0  0  0  0  0  0  0  0  0  0  0  0
    4.3547   -2.1210    0.0000 C   0  0  2  0  0  0  0  0  0  0  0  0
    5.8265    0.3939    0.0000 C   0  0  0  0  0  0  0  0  0  0  0  0
    5.1122   -0.0186    0.0000 C   0  0  0  0  0  0  0  0  0  0  0  0
    5.8398   -2.1153    0.0000 C   0  0  2  0  0  0  0  0  0  0  0  0
    7.3215   -1.0949    0.0000 C   0  0  0  0  0  0  0  0  0  0  0  0
    7.8030   -0.4312    0.0000 C   0  0  0  0  0  0  0  0  0  0  0  0
    5.0990   -2.5506    0.0000 C   0  0  0  0  0  0  0  0  0  0  0  0
    3.5968   -0.7963    0.0000 C   0  0  0  0  0  0  0  0  0  0  0  0
    6.5410    0.8063    0.0000 C   0  0  0  0  0  0  0  0  0  0  0  0
    3.5831   -2.5745    0.0000 C   0  0  0  0  0  0  0  0  0  0  0  0
    4.3678   -0.4368    0.0000 C   0  0  0  0  0  0  0  0  0  0  0  0
    2.8148   -1.2319    0.0000 C   0  0  0  0  0  0  0  0  0  0  0  0
    2.8079   -2.1270    0.0000 C   0  0  1  0  0  0  0  0  0  0  0  0
    6.6109   -1.4999    0.0000 H   0  0  0  0  0  0  0  0  0  0  0  0
    6.4007   -1.5816    0.0000 H   0  0  0  0  0  0  0  0  0  0  0  0
    5.6836   -0.5137    0.0000 H   0  0  0  0  0  0  0  0  0  0  0  0
    7.9736    0.3352    0.0000 H   0  0  0  0  0  0  0  0  0  0  0  0
    4.3573   -2.7809    0.0000 H   0  0  0  0  0  0  0  0  0  0  0  0
    6.5703   -3.4893    0.0000 H   0  0  0  0  0  0  0  0  0  0  0  0
    1.2538   -2.0483    0.0000 H   0  0  0  0  0  0  0  0  0  0  0  0
  1 27  1  0  0  0  0
  2 28  1  0  0  0  0
  3  4  1  6  0  0  0
  3 13  1  0  0  0  0
  3 22  1  0  0  0  0
  4  8  1  0  0  0  0
  4 10  1  0  0  0  0
  4 17  1  1  0  0  0
  5  3  1  6  0  0  0
  5 23  1  0  0  0  0
  6  5  1  1  0  0  0
  6 11  1  0  0  0  0
  6 24  1  0  0  0  0
  7  6  1  6  0  0  0
  7 16  1  0  0  0  0
  7 19  1  0  0  0  0
  8 14  1  0  0  0  0
  8 25  1  0  0  0  0
  9  7  1  1  0  0  0
  9 15  1  0  0  0  0
  9 18  1  0  0  0  0
  9 26  1  0  0  0  0
 10 11  1  0  0  0  0
 12  1  1  0  0  0  0
 12  5  1  1  0  0  0
 12 15  1  0  0  0  0
 13 14  1  0  0  0  0
 16 20  1  0  0  0  0
 18 21  1  0  0  0  0
 20 21  1  0  0  0  0
 21  2  1  6  0  0  0
M  END
$$$$
CC1=CC(=O)N2C(O1)c1cc(Cl)ccc1N(C(=O)C2)C
 OpenBabel07182308452D

 20 22  0  0  1  0  0  0  0  0999 V2000
    1.6499   -0.7440    0.0000 Cl  0  0  0  0  0  0  0  0  0  0  0  0
    4.3623   -1.0472    0.0000 O   0  0  0  0  0  0  0  0  0  0  0  0
    6.6394    0.0601    0.0000 O   0  0  0  0  0  0  0  0  0  0  0  0
    5.2101    2.3592    0.0000 O   0  0  0  0  0  0  0  0  0  0  0  0
    5.1830    0.1666    0.0000 N   0  0  0  0  0  0  0  0  0  0  0  0
    4.0272    1.6159    0.0000 N   0  0  0  0  0  0  0  0  0  0  0  0
    4.4397   -0.1914    0.0000 C   0  0  3  0  0  0  0  0  0  0  0  0
    3.6964    0.1666    0.0000 C   0  0  0  0  0  0  0  0  0  0  0  0
    5.3665    0.9709    0.0000 C   0  0  0  0  0  0  0  0  0  0  0  0
    3.5129    0.9709    0.0000 C   0  0  0  0  0  0  0  0  0  0  0  0
    5.9004   -0.3065    0.0000 C   0  0  0  0  0  0  0  0  0  0  0  0
    4.8521    1.6159    0.0000 C   0  0  0  0  0  0  0  0  0  0  0  0
    3.0756   -0.4276    0.0000 C   0  0  0  0  0  0  0  0  0  0  0  0
    5.0685   -1.5367    0.0000 C   0  0  0  0  0  0  0  0  0  0  0  0
    5.8428   -1.1639    0.0000 C   0  0  0  0  0  0  0  0  0  0  0  0
    2.6957    1.2368    0.0000 C   0  0  0  0  0  0  0  0  0  0  0  0
    3.6693    2.3592    0.0000 C   0  0  0  0  0  0  0  0  0  0  0  0
    2.2525   -0.1806    0.0000 C   0  0  0  0  0  0  0  0  0  0  0  0
    2.0613    0.6572    0.0000 C   0  0  0  0  0  0  0  0  0  0  0  0
    5.0037   -2.3592    0.0000 C   0  0  0  0  0  0  0  0  0  0  0  0
  1 18  1  0  0  0  0
  2  7  1  0  0  0  0
  2 14  1  0  0  0  0
  3 11  2  0  0  0  0
  4 12  2  0  0  0  0
  5  7  1  0  0  0  0
  5  9  1  0  0  0  0
  5 11  1  0  0  0  0
  6 10  1  0  0  0  0
  6 12  1  0  0  0  0
  6 17  1  0  0  0  0
  7  8  1  0  0  0  0
  8 10  2  0  0  0  0
  8 13  1  0  0  0  0
  9 12  1  0  0  0  0
 10 16  1  0  0  0  0
 11 15  1  0  0  0  0
 13 18  2  0  0  0  0
 14 15  2  0  0  0  0
 14 20  1  0  0  0  0
 16 19  2  0  0  0  0
 18 19  1  0  0  0  0
M  END
$$$$
Clc1ccc2c(c1)C=NCC(=S)N2C
 OpenBabel07182308452D

 14 15  0  0  0  0  0  0  0  0999 V2000
    4.0267   -2.3989    0.0000 Cl  0  0  0  0  0  0  0  0  0  0  0  0
    4.2399    2.3989    0.0000 S   0  0  0  0  0  0  0  0  0  0  0  0
    3.6638    0.9312    0.0000 N   0  0  0  0  0  0  0  0  0  0  0  0
    5.5176    0.9312    0.0000 N   0  0  0  0  0  0  0  0  0  0  0  0
    3.8475    0.1269    0.0000 C   0  0  0  0  0  0  0  0  0  0  0  0
    4.5907   -0.2311    0.0000 C   0  0  0  0  0  0  0  0  0  0  0  0
    5.3340    0.1269    0.0000 C   0  0  0  0  0  0  0  0  0  0  0  0
    2.8595    1.1148    0.0000 C   0  0  0  0  0  0  0  0  0  0  0  0
    4.1782    1.5762    0.0000 C   0  0  0  0  0  0  0  0  0  0  0  0
    5.0032    1.5762    0.0000 C   0  0  0  0  0  0  0  0  0  0  0  0
    3.1301   -0.3462    0.0000 C   0  0  0  0  0  0  0  0  0  0  0  0
    4.6682   -1.0869    0.0000 C   0  0  0  0  0  0  0  0  0  0  0  0
    3.1876   -1.2036    0.0000 C   0  0  0  0  0  0  0  0  0  0  0  0
    3.9619   -1.5765    0.0000 C   0  0  0  0  0  0  0  0  0  0  0  0
  1 14  1  0  0  0  0
  2  9  2  0  0  0  0
  3  5  1  0  0  0  0
  3  8  1  0  0  0  0
  3  9  1  0  0  0  0
  4  7  2  0  0  0  0
  4 10  1  0  0  0  0
  5  6  2  0  0  0  0
  5 11  1  0  0  0  0
  6  7  1  0  0  0  0
  6 12  1  0  0  0  0
  9 10  1  0  0  0  0
 11 13  2  0  0  0  0
 12 14  2  0  0  0  0
 13 14  1  0  0  0  0
M  END
$$$$
[Fe]
 OpenBabel07182308452D

  1  0  0  0  0  0  0  0  0  0999 V2000
    0.0000    0.0000    0.0000 Fe  0  0  0  0  0 15  0  0  0  0  0  0
M  END
$$$$
[Zn]
 OpenBabel07182308452D

  1  0  0  0  0  0  0  0  0  0999 V2000
    2.0000    0.0000    0.0000 Zn  0  0  0  0  0 15  0  0  0  0  0  0
M  END
$$$$
CC1(C)CC1
 OpenBabel07182308452D

  5  5  0  0  0  0  0  0  0  0999 V2000
    2.8463    1.7054    0.0000 C   0  0  0  0  0  0  0  0  0  0  0  0
    2.4265    2.4146    0.0000 C   0  0  0  0  0  0  0  0  0  0  0  0
    3.2467    2.4193    0.0000 C   0  0  0  0  0  0  0  0  0  0  0  0
    1.7078    2.0140    0.0000 C   0  0  0  0  0  0  0  0  0  0  0  0
    1.7078    2.8294    0.0000 C   0  0  0  0  0  0  0  0  0  0  0  0
  2  1  1  0  0  0  0
  3  1  1  0  0  0  0
  3  2  1  0  0  0  0
  4  2  1  0  0  0  0
  5  2  1  0  0  0  0
M  END
$$$$
SC1=CN2[C@H](C1)CC2=O
 OpenBabel07182308452D

 11 12  0  0  1  0  0  0  0  0999 V2000
    5.9559   -0.2382    0.0000 S   0  0  0  0  0  0  0  0  0  0  0  0
    2.4474   -1.2387    0.0000 O   0  0  0  0  0  0  0  0  0  0  0  0
    3.8613   -0.6507    0.0000 N   0  0  0  0  0  0  0  0  0  0  0  0
    3.8613    0.1743    0.0000 C   0  0  1  0  0  0  0  0  0  0  0  0
    3.0295    0.1778    0.0000 C   0  0  0  0  0  0  0  0  0  0  0  0
    4.6459    0.4292    0.0000 C   0  0  0  0  0  0  0  0  0  0  0  0
    3.0295   -0.6541    0.0000 C   0  0  0  0  0  0  0  0  0  0  0  0
    4.6459   -0.9056    0.0000 C   0  0  0  0  0  0  0  0  0  0  0  0
    5.1309   -0.2382    0.0000 C   0  0  0  0  0  0  0  0  0  0  0  0
    3.7595    0.8264    0.0000 H   0  0  0  0  0  0  0  0  0  0  0  0
    2.4195   -0.0742    0.0000 H   0  0  0  0  0  0  0  0  0  0  0  0
  1  9  1  0  0  0  0
  2  7  2  0  0  0  0
  3  4  1  0  0  0  0
  3  7  1  0  0  0  0
  3  8  1  0  0  0  0
  4  5  1  0  0  0  0
  4  6  1  0  0  0  0
  4 10  1  6  0  0  0
  5  7  1  0  0  0  0
  5 11  1  0  0  0  0
  6  9  1  0  0  0  0
  8  9  2  0  0  0  0
M  END
$$$$
C/N=C/N
 OpenBabel07182308452D

  6  5  0  0  1  0  0  0  0  0999 V2000
    7.6059    1.1908    0.0000 N   0  0  0  0  0  0  0  0  0  0  0  0
    8.8434    1.9053    0.0000 N   0  0  0  0  0  0  0  0  0  0  0  0
    7.1934    0.4763    0.0000 C   0  0  0  0  0  0  0  0  0  0  0  0
    8.4309    1.1908    0.0000 C   0  0  0  0  0  0  0  0  0  0  0  0
    9.8279    1.9053    0.0000 H   0  0  0  0  0  0  0  0  0  0  0  0
    8.3511    2.7579    0.0000 H   0  0  0  0  0  0  0  0  0  0  0  0
  1  3  1  0  0  0  0
  1  4  2  0  0  0  0
  2  4  1  0  0  0  0
  2  5  1  0  0  0  0
  2  6  1  0  0  0  0
M  END
$$$$
Oc1ccc(cc1)S
 OpenBabel07182308452D

  9  9  0  0  0  0  0  0  0  0999 V2000
    5.7461   -5.7468    0.0000 C   0  0  0  0  0  0  0  0  0  0  0  0
    5.7461   -4.9218    0.0000 C   0  0  0  0  0  0  0  0  0  0  0  0
    7.1750   -4.9218    0.0000 C   0  0  0  0  0  0  0  0  0  0  0  0
    7.1750   -5.7468    0.0000 C   0  0  0  0  0  0  0  0  0  0  0  0
    6.4605   -4.5093    0.0000 C   0  0  0  0  0  0  0  0  0  0  0  0
    6.4605   -6.1592    0.0000 C   0  0  0  0  0  0  0  0  0  0  0  0
    7.8894   -6.1592    0.0000 S   0  0  0  0  0  0  0  0  0  0  0  0
    5.0316   -4.5093    0.0000 O   0  0  0  0  0  0  0  0  0  0  0  0
    5.0316   -3.5723    0.0000 H   0  0  0  0  0  0  0  0  0  0  0  0
  1  2  2  0  0  0  0
  2  5  1  0  0  0  0
  2  8  1  0  0  0  0
  3  4  1  0  0  0  0
  4  7  1  0  0  0  0
  5  3  2  0  0  0  0
  6  1  1  0  0  0  0
  6  4  2  0  0  0  0
  8  9  1  0  0  0  0
M  END
$$$$
Cc1cccc(c1O)C
 OpenBabel07182308452D

  9  9  0  0  0  0  0  0  0  0999 V2000
    4.2838    0.0363    0.0000 C   0  0  0  0  0  0  0  0  0  0  0  0
    3.5698    0.4497    0.0000 O   0  0  0  0  0  0  0  0  0  0  0  0
    4.9987    0.4480    0.0000 C   0  0  0  0  0  0  0  0  0  0  0  0
    5.7127    0.0346    0.0000 C   0  0  0  0  0  0  0  0  0  0  0  0
    5.7117   -0.7903    0.0000 C   0  0  0  0  0  0  0  0  0  0  0  0
    4.9967   -1.2019    0.0000 C   0  0  0  0  0  0  0  0  0  0  0  0
    4.2828   -0.7886    0.0000 C   0  0  0  0  0  0  0  0  0  0  0  0
    4.9997    1.2746    0.0000 C   0  0  0  0  0  0  0  0  0  0  0  0
    3.5664   -1.2010    0.0000 C   0  0  0  0  0  0  0  0  0  0  0  0
  1  2  1  0  0  0  0
  1  3  2  0  0  0  0
  3  4  1  0  0  0  0
  3  8  1  0  0  0  0
  4  5  2  0  0  0  0
  5  6  1  0  0  0  0
  6  7  2  0  0  0  0
  7  1  1  0  0  0  0
  7  9  1  0  0  0  0
M  END
$$$$
O=C1NCCCN1
 OpenBabel07182308452D

  8  8  0  0  0  0  0  0  0  0999 V2000
   -4.2837    0.0363    0.0000 N   0  0  0  0  0  0  0  0  0  0  0  0
   -4.2827   -0.7886    0.0000 C   0  0  0  0  0  0  0  0  0  0  0  0
   -4.9967   -1.2019    0.0000 C   0  0  0  0  0  0  0  0  0  0  0  0
   -5.7117   -0.7903    0.0000 C   0  0  0  0  0  0  0  0  0  0  0  0
   -5.7127    0.0346    0.0000 N   0  0  0  0  0  0  0  0  0  0  0  0
   -4.9987    0.4480    0.0000 C   0  0  0  0  0  0  0  0  0  0  0  0
   -4.9996    1.2746    0.0000 O   0  0  0  0  0  0  0  0  0  0  0  0
   -6.5659    0.5258    0.0000 H   0  0  0  0  0  0  0  0  0  0  0  0
  1  2  1  0  0  0  0
  2  3  1  0  0  0  0
  3  4  1  0  0  0  0
  4  5  1  0  0  0  0
  5  6  1  0  0  0  0
  5  8  1  0  0  0  0
  6  1  1  0  0  0  0
  6  7  2  0  0  0  0
M  END
$$$$
C1CCCCNC1
 OpenBabel07182308452D

  7  7  0  0  1  0  0  0  0  0999 V2000
   -2.9684    1.2375    0.0000 N   0  0  0  0  0  0  0  0  0  0  0  0
   -3.6501    0.7728    0.0000 C   0  0  0  0  0  0  0  0  0  0  0  0
   -2.9068    2.0602    0.0000 C   0  0  0  0  0  0  0  0  0  0  0  0
   -3.5116    2.6213    0.0000 C   0  0  0  0  0  0  0  0  0  0  0  0
   -4.4384    1.0159    0.0000 C   0  0  0  0  0  0  0  0  0  0  0  0
   -4.3273    2.4984    0.0000 C   0  0  0  0  0  0  0  0  0  0  0  0
   -4.7398    1.7839    0.0000 C   0  0  0  0  0  0  0  0  0  0  0  0
  2  1  1  0  0  0  0
  3  1  1  0  0  0  0
  4  3  1  0  0  0  0
  5  2  1  0  0  0  0
  6  4  1  0  0  0  0
  7  5  1  0  0  0  0
  7  6  1  0  0  0  0
M  END
$$$$
O=C1C[C@@H]2N1C[C@H](S2(=O)=O)C
 OpenBabel07182308452D

 12 13  0  0  1  0  0  0  0  0999 V2000
    3.8486    1.2172    0.0000 S   0  0  0  0  0  0  0  0  0  0  0  0
    3.5937    2.0019    0.0000 O   0  0  0  0  0  0  0  0  0  0  0  0
    4.5161    1.7021    0.0000 O   0  0  0  0  0  0  0  0  0  0  0  0
    1.6500   -0.4507    0.0000 O   0  0  0  0  0  0  0  0  0  0  0  0
    3.0640    0.1373    0.0000 N   0  0  0  0  0  0  0  0  0  0  0  0
    4.3336    0.5498    0.0000 C   0  0  1  0  0  0  0  0  0  0  0  0
    3.0640    0.9623    0.0000 C   0  0  1  0  0  0  0  0  0  0  0  0
    3.8486   -0.1176    0.0000 C   0  0  0  0  0  0  0  0  0  0  0  0
    2.2322    0.9657    0.0000 C   0  0  0  0  0  0  0  0  0  0  0  0
    2.2322    0.1339    0.0000 C   0  0  0  0  0  0  0  0  0  0  0  0
    5.0010    1.0347    0.0000 C   0  0  0  0  0  0  0  0  0  0  0  0
    2.9557    1.6551    0.0000 H   0  0  0  0  0  0  0  0  0  0  0  0
  1  2  2  0  0  0  0
  1  3  2  0  0  0  0
  1  6  1  0  0  0  0
  1  7  1  0  0  0  0
  4 10  2  0  0  0  0
  5  7  1  0  0  0  0
  5  8  1  0  0  0  0
  5 10  1  0  0  0  0
  6  8  1  0  0  0  0
  6 11  1  6  0  0  0
  7  9  1  0  0  0  0
  7 12  1  6  0  0  0
  9 10  1  0  0  0  0
M  END
$$$$
Cn1ccnn1
 OpenBabel07182308452D

  6  6  0  0  1  0  0  0  0  0999 V2000
    5.7547    0.4005    0.0000 N   0  0  0  0  0  0  0  0  0  0  0  0
    6.4692   -0.0120    0.0000 N   0  0  0  0  0  0  0  0  0  0  0  0
    7.0822    0.5400    0.0000 N   0  0  0  0  0  0  0  0  0  0  0  0
    5.0010    0.0648    0.0000 C   0  0  0  0  0  0  0  0  0  0  0  0
    5.9263    1.2074    0.0000 C   0  0  0  0  0  0  0  0  0  0  0  0
    6.7467    1.2936    0.0000 C   0  0  0  0  0  0  0  0  0  0  0  0
  1  2  1  0  0  0  0
  1  4  1  0  0  0  0
  1  5  1  0  0  0  0
  2  3  2  0  0  0  0
  3  6  1  0  0  0  0
  5  6  2  0  0  0  0
M  END
$$$$
N#Cc1ccc2c(c1)N(C)c1c(S2)cccc1
 OpenBabel07182308452D

 17 19  0  0  0  0  0  0  0  0999 V2000
    5.2216   -2.9223    0.0000 S   0  0  0  0  0  0  0  0  0  0  0  0
    5.2216   -1.2725    0.0000 N   0  0  0  0  0  0  0  0  0  0  0  0
    8.8463   -0.8374    0.0000 N   0  0  0  0  0  0  0  0  0  0  0  0
    5.2216   -0.4476    0.0000 C   0  0  0  0  0  0  0  0  0  0  0  0
    5.9361   -1.6850    0.0000 C   0  0  0  0  0  0  0  0  0  0  0  0
    4.5073   -1.6850    0.0000 C   0  0  0  0  0  0  0  0  0  0  0  0
    5.9361   -2.5099    0.0000 C   0  0  0  0  0  0  0  0  0  0  0  0
    4.5073   -2.5099    0.0000 C   0  0  0  0  0  0  0  0  0  0  0  0
    6.6734   -1.2439    0.0000 C   0  0  0  0  0  0  0  0  0  0  0  0
    3.7699   -1.2439    0.0000 C   0  0  0  0  0  0  0  0  0  0  0  0
    6.6734   -2.9509    0.0000 C   0  0  0  0  0  0  0  0  0  0  0  0
    3.7699   -2.9509    0.0000 C   0  0  0  0  0  0  0  0  0  0  0  0
    7.4209   -1.6679    0.0000 C   0  0  0  0  0  0  0  0  0  0  0  0
    3.0225   -1.6679    0.0000 C   0  0  0  0  0  0  0  0  0  0  0  0
    7.4209   -2.5271    0.0000 C   0  0  0  0  0  0  0  0  0  0  0  0
    3.0225   -2.5271    0.0000 C   0  0  0  0  0  0  0  0  0  0  0  0
    8.1336   -1.2526    0.0000 C   0  0  0  0  0  0  0  0  0  0  0  0
  1  7  1  0  0  0  0
  1  8  1  0  0  0  0
  2  4  1  0  0  0  0
  2  5  1  0  0  0  0
  2  6  1  0  0  0  0
  3 17  3  0  0  0  0
  5  7  2  0  0  0  0
  5  9  1  0  0  0  0
  6  8  1  0  0  0  0
  6 10  2  0  0  0  0
  7 11  1  0  0  0  0
  8 12  2  0  0  0  0
  9 13  2  0  0  0  0
 10 14  1  0  0  0  0
 11 15  2  0  0  0  0
 12 16  1  0  0  0  0
 13 15  1  0  0  0  0
 13 17  1  0  0  0  0
 14 16  2  0  0  0  0
M  END
$$$$
O=C1CCCc2c1cc([nH]2)C
 OpenBabel07182308452D

 12 13  0  0  1  0  0  0  0  0999 V2000
    5.2224    1.4001    0.0000 O   0  0  0  0  0  0  0  0  0  0  0  0
    6.7176   -0.9139    0.0000 N   0  0  0  0  0  0  0  0  0  0  0  0
    4.5080    0.1625    0.0000 C   0  0  0  0  0  0  0  0  0  0  0  0
    4.5080   -0.6625    0.0000 C   0  0  0  0  0  0  0  0  0  0  0  0
    5.2224   -1.0750    0.0000 C   0  0  0  0  0  0  0  0  0  0  0  0
    5.9370    0.1625    0.0000 C   0  0  0  0  0  0  0  0  0  0  0  0
    5.9370   -0.6625    0.0000 C   0  0  0  0  0  0  0  0  0  0  0  0
    5.2224    0.5750    0.0000 C   0  0  0  0  0  0  0  0  0  0  0  0
    6.7176    0.4140    0.0000 C   0  0  0  0  0  0  0  0  0  0  0  0
    7.1991   -0.2500    0.0000 C   0  0  0  0  0  0  0  0  0  0  0  0
    8.0241   -0.2500    0.0000 C   0  0  0  0  0  0  0  0  0  0  0  0
    7.0234   -1.8497    0.0000 H   0  0  0  0  0  0  0  0  0  0  0  0
  1  8  2  0  0  0  0
  2  7  1  0  0  0  0
  2 10  1  0  0  0  0
  2 12  1  0  0  0  0
  3  4  1  0  0  0  0
  3  8  1  0  0  0  0
  4  5  1  0  0  0  0
  5  7  1  0  0  0  0
  6  7  2  0  0  0  0
  6  8  1  0  0  0  0
  6  9  1  0  0  0  0
  9 10  2  0  0  0  0
 10 11  1  0  0  0  0
M  END
$$$$
CN1CCC2=C(C1)Cc1c2cccc1
 OpenBabel07182308452D

 14 16  0  0  1  0  0  0  0  0999 V2000
    5.8199   -1.2064    0.0000 N   0  0  0  0  0  0  0  0  0  0  0  0
    3.7350   -0.2790    0.0000 C   0  0  0  0  0  0  0  0  0  0  0  0
    4.4024   -0.7639    0.0000 C   0  0  0  0  0  0  0  0  0  0  0  0
    4.1474   -1.5485    0.0000 C   0  0  0  0  0  0  0  0  0  0  0  0
    5.2400   -0.5723    0.0000 C   0  0  0  0  0  0  0  0  0  0  0  0
    3.0675   -0.7639    0.0000 C   0  0  0  0  0  0  0  0  0  0  0  0
    4.7125   -2.1959    0.0000 C   0  0  0  0  0  0  0  0  0  0  0  0
    3.3225   -1.5485    0.0000 C   0  0  0  0  0  0  0  0  0  0  0  0
    5.5543   -2.0237    0.0000 C   0  0  0  0  0  0  0  0  0  0  0  0
    2.2298   -0.5723    0.0000 C   0  0  0  0  0  0  0  0  0  0  0  0
    2.7574   -2.1959    0.0000 C   0  0  0  0  0  0  0  0  0  0  0  0
    6.6262   -1.0319    0.0000 C   0  0  0  0  0  0  0  0  0  0  0  0
    1.6499   -1.2064    0.0000 C   0  0  0  0  0  0  0  0  0  0  0  0
    1.9155   -2.0237    0.0000 C   0  0  0  0  0  0  0  0  0  0  0  0
  1  5  1  0  0  0  0
  1  9  1  0  0  0  0
  1 12  1  0  0  0  0
  2  3  1  0  0  0  0
  2  6  1  0  0  0  0
  3  4  2  0  0  0  0
  3  5  1  0  0  0  0
  4  7  1  0  0  0  0
  4  8  1  0  0  0  0
  6  8  1  0  0  0  0
  6 10  2  0  0  0  0
  7  9  1  0  0  0  0
  8 11  2  0  0  0  0
 10 13  1  0  0  0  0
 11 14  1  0  0  0  0
 13 14  2  0  0  0  0
M  END
$$$$
CCC(=O)N
 OpenBabel07182308452D

  7  6  0  0  0  0  0  0  0  0999 V2000
    6.1876    0.7145    0.0000 O   0  0  0  0  0  0  0  0  0  0  0  0
    6.4896   -0.4125    0.0000 N   0  0  0  0  0  0  0  0  0  0  0  0
    4.1251    0.0000    0.0000 C   0  0  0  0  0  0  0  0  0  0  0  0
    4.9501    0.0000    0.0000 C   0  0  0  0  0  0  0  0  0  0  0  0
    5.7751    0.0000    0.0000 C   0  0  0  0  0  0  0  0  0  0  0  0
    6.4896   -1.3970    0.0000 H   0  0  0  0  0  0  0  0  0  0  0  0
    7.3422    0.0798    0.0000 H   0  0  0  0  0  0  0  0  0  0  0  0
  1  5  2  0  0  0  0
  2  5  1  0  0  0  0
  2  6  1  0  0  0  0
  2  7  1  0  0  0  0
  3  4  1  0  0  0  0
  4  5  1  0  0  0  0
M  END
$$$$
C[C@H]1O[C@@H]([C@@H]([C@@H]1O)O)O
 OpenBabel07182308452D

 11 11  0  0  0  0  0  0  0  0999 V2000
   -0.3571    0.6710    0.0000 O   0  0  0  0  0  0  0  0  0  0  0  0
    0.3102    0.1860    0.0000 C   0  0  1  0  0  0  0  0  0  0  0  0
    0.0484   -0.6196    0.0000 C   0  0  1  0  0  0  0  0  0  0  0  0
   -1.0245    0.1860    0.0000 C   0  0  1  0  0  0  0  0  0  0  0  0
   -0.7765   -0.6196    0.0000 C   0  0  1  0  0  0  0  0  0  0  0  0
    0.5402   -1.2660    0.0000 O   0  0  0  0  0  0  0  0  0  0  0  0
   -1.2545   -1.2660    0.0000 O   0  0  0  0  0  0  0  0  0  0  0  0
   -1.8092    0.4410    0.0000 C   0  0  0  0  0  0  0  0  0  0  0  0
    1.0949    0.4410    0.0000 O   0  0  0  0  0  0  0  0  0  0  0  0
    0.1653   -2.1606    0.0000 H   0  0  0  0  0  0  0  0  0  0  0  0
   -2.2183   -1.1565    0.0000 H   0  0  0  0  0  0  0  0  0  0  0  0
  1  4  1  0  0  0  0
  2  1  1  0  0  0  0
  2  3  1  0  0  0  0
  2  9  1  6  0  0  0
  3  5  1  0  0  0  0
  3  6  1  6  0  0  0
  4  8  1  1  0  0  0
  4  5  1  0  0  0  0
  5  7  1  6  0  0  0
  6 10  1  0  0  0  0
  7 11  1  0  0  0  0
M  END
$$$$
Clc1cncc(c1)Cl
 OpenBabel07182308452D

  8  8  0  0  0  0  0  0  0  0999 V2000
    7.4765    2.0625    0.0000 Cl  0  0  0  0  0  0  0  0  0  0  0  0
    4.6185    2.0625    0.0000 Cl  0  0  0  0  0  0  0  0  0  0  0  0
    6.0475    3.7126    0.0000 N   0  0  0  0  0  0  0  0  0  0  0  0
    6.0475    2.0625    0.0000 C   0  0  0  0  0  0  0  0  0  0  0  0
    6.7620    2.4751    0.0000 C   0  0  0  0  0  0  0  0  0  0  0  0
    5.3330    2.4751    0.0000 C   0  0  0  0  0  0  0  0  0  0  0  0
    6.7620    3.3001    0.0000 C   0  0  0  0  0  0  0  0  0  0  0  0
    5.3330    3.3001    0.0000 C   0  0  0  0  0  0  0  0  0  0  0  0
  1  5  1  0  0  0  0
  2  6  1  0  0  0  0
  3  7  2  0  0  0  0
  3  8  1  0  0  0  0
  4  5  2  0  0  0  0
  4  6  1  0  0  0  0
  5  7  1  0  0  0  0
  6  8  2  0  0  0  0
M  END
$$$$
O[C@@H]1[C@@H](C)O[C@H]([C@@H]([C@H]1O)O)O
 OpenBabel07182308452D

 14 14  0  0  1  0  0  0  0  0999 V2000
   29.2967  -14.4756    0.0000 O   0  0  0  0  0  0  0  0  0  0  0  0
   28.5823  -16.5381    0.0000 O   0  0  0  0  0  0  0  0  0  0  0  0
   27.1533  -15.7131    0.0000 O   0  0  0  0  0  0  0  0  0  0  0  0
   28.5823  -13.2380    0.0000 O   0  0  0  0  0  0  0  0  0  0  0  0
   27.1533  -14.0630    0.0000 O   0  0  0  0  0  0  0  0  0  0  0  0
   29.2967  -15.3006    0.0000 C   0  0  1  0  0  0  0  0  0  0  0  0
   28.5823  -15.7131    0.0000 C   0  0  2  0  0  0  0  0  0  0  0  0
   27.8678  -15.3006    0.0000 C   0  0  1  0  0  0  0  0  0  0  0  0
   27.8678  -14.4756    0.0000 C   0  0  2  0  0  0  0  0  0  0  0  0
   28.5823  -14.0630    0.0000 C   0  0  1  0  0  0  0  0  0  0  0  0
   30.0113  -15.7131    0.0000 C   0  0  0  0  0  0  0  0  0  0  0  0
   27.7423  -17.0231    0.0000 H   0  0  0  0  0  0  0  0  0  0  0  0
   26.3133  -15.2281    0.0000 H   0  0  0  0  0  0  0  0  0  0  0  0
   27.1534  -13.0930    0.0000 H   0  0  0  0  0  0  0  0  0  0  0  0
  1  6  1  0  0  0  0
  1 10  1  0  0  0  0
  2 12  1  0  0  0  0
  3 13  1  0  0  0  0
  5 14  1  0  0  0  0
  6  7  1  0  0  0  0
  6 11  1  6  0  0  0
  7  2  1  1  0  0  0
  7  8  1  0  0  0  0
  8  3  1  6  0  0  0
  8  9  1  0  0  0  0
  9  5  1  1  0  0  0
  9 10  1  0  0  0  0
 10  4  1  6  0  0  0
M  END
$$$$
O[C@H]1[C@H](C)O[C@H]([C@@H]([C@@H]1O)O)O
 OpenBabel07182308452D

 14 14  0  0  1  0  0  0  0  0999 V2000
   30.0113  -16.5381    0.0000 O   0  0  0  0  0  0  0  0  0  0  0  0
   31.4402  -16.5381    0.0000 O   0  0  0  0  0  0  0  0  0  0  0  0
   30.0113  -18.1881    0.0000 O   0  0  0  0  0  0  0  0  0  0  0  0
   31.4402  -19.0132    0.0000 O   0  0  0  0  0  0  0  0  0  0  0  0
   32.8692  -18.1881    0.0000 O   0  0  0  0  0  0  0  0  0  0  0  0
   30.7257  -17.7756    0.0000 C   0  0  1  0  0  0  0  0  0  0  0  0
   30.7257  -16.9506    0.0000 C   0  0  2  0  0  0  0  0  0  0  0  0
   31.4402  -18.1881    0.0000 C   0  0  1  0  0  0  0  0  0  0  0  0
   32.1547  -17.7756    0.0000 C   0  0  2  0  0  0  0  0  0  0  0  0
   32.1547  -16.9506    0.0000 C   0  0  2  0  0  0  0  0  0  0  0  0
   32.8692  -16.5381    0.0000 C   0  0  0  0  0  0  0  0  0  0  0  0
   29.1712  -17.7031    0.0000 H   0  0  0  0  0  0  0  0  0  0  0  0
   30.6002  -19.4982    0.0000 H   0  0  0  0  0  0  0  0  0  0  0  0
   32.8692  -19.1581    0.0000 H   0  0  0  0  0  0  0  0  0  0  0  0
  2  7  1  0  0  0  0
  2 10  1  0  0  0  0
  3 12  1  0  0  0  0
  4 13  1  0  0  0  0
  5 14  1  0  0  0  0
  6  3  1  1  0  0  0
  6  7  1  0  0  0  0
  6  8  1  0  0  0  0
  7  1  1  6  0  0  0
  8  4  1  1  0  0  0
  8  9  1  0  0  0  0
  9  5  1  6  0  0  0
  9 10  1  0  0  0  0
 10 11  1  1  0  0  0
M  END
$$$$
Oc1cc(O)c2c(c1)occc2=O
 OpenBabel07182308452D

 15 16  0  0  1  0  0  0  0  0999 V2000
   30.0113  -11.5880    0.0000 O   0  0  0  0  0  0  0  0  0  0  0  0
   30.0113  -14.0630    0.0000 O   0  0  0  0  0  0  0  0  0  0  0  0
   31.4537  -14.0916    0.0000 O   0  0  0  0  0  0  0  0  0  0  0  0
   32.9237  -11.5681    0.0000 O   0  0  0  0  0  0  0  0  0  0  0  0
   29.2967  -12.8255    0.0000 C   0  0  0  0  0  0  0  0  0  0  0  0
   29.2967  -12.0005    0.0000 C   0  0  0  0  0  0  0  0  0  0  0  0
   30.0113  -13.2380    0.0000 C   0  0  0  0  0  0  0  0  0  0  0  0
   30.7257  -12.8255    0.0000 C   0  0  0  0  0  0  0  0  0  0  0  0
   30.7257  -12.0005    0.0000 C   0  0  0  0  0  0  0  0  0  0  0  0
   31.4632  -13.2667    0.0000 C   0  0  0  0  0  0  0  0  0  0  0  0
   31.4632  -11.5594    0.0000 C   0  0  0  0  0  0  0  0  0  0  0  0
   32.2108  -12.8427    0.0000 C   0  0  0  0  0  0  0  0  0  0  0  0
   32.2108  -11.9833    0.0000 C   0  0  0  0  0  0  0  0  0  0  0  0
   30.6369  -14.5507    0.0000 H   0  0  0  0  0  0  0  0  0  0  0  0
   33.7369  -12.0335    0.0000 H   0  0  0  0  0  0  0  0  0  0  0  0
  1  6  1  0  0  0  0
  1  9  1  0  0  0  0
  2  7  2  0  0  0  0
  3 10  1  0  0  0  0
  3 14  1  0  0  0  0
  4 13  1  0  0  0  0
  4 15  1  0  0  0  0
  5  6  2  0  0  0  0
  5  7  1  0  0  0  0
  7  8  1  0  0  0  0
  8  9  1  0  0  0  0
  8 10  2  0  0  0  0
  9 11  2  0  0  0  0
 10 12  1  0  0  0  0
 11 13  1  0  0  0  0
 12 13  2  0  0  0  0
M  END
$$$$
O[C@H]1CC[C@]2(C(=CC[C@@H]3[C@@H]2CC[C@]2([C@H]3CCC2=O)C)C1)C
 OpenBabel07182308452D

 26 29  0  0  0  0  0  0  0  0999 V2000
    1.4289   -0.5277    0.0000 C   0  0  0  0  0  0  0  0  0  0  0  0
    2.2410   -0.3824    0.0000 C   0  0  0  0  0  0  0  0  0  0  0  0
    2.5213    0.3935    0.0000 C   0  0  2  0  0  0  0  0  0  0  0  0
    3.3334    0.5387    0.0000 O   0  0  0  0  0  0  0  0  0  0  0  0
    1.9895    1.0242    0.0000 C   0  0  0  0  0  0  0  0  0  0  0  0
    1.1774    0.8790    0.0000 C   0  0  0  0  0  0  0  0  0  0  0  0
    0.6455    1.5097    0.0000 C   0  0  0  0  0  0  0  0  0  0  0  0
   -0.1666    1.3645    0.0000 C   0  0  0  0  0  0  0  0  0  0  0  0
   -0.4469    0.5885    0.0000 C   0  0  2  0  0  0  0  0  0  0  0  0
    0.0849   -0.0422    0.0000 C   0  0  1  0  0  0  0  0  0  0  0  0
    0.8971    0.1030    0.0000 C   0  0  1  0  0  0  0  0  0  0  0  0
   -0.1954   -0.8181    0.0000 C   0  0  0  0  0  0  0  0  0  0  0  0
   -1.0075   -0.9633    0.0000 C   0  0  0  0  0  0  0  0  0  0  0  0
   -1.5393   -0.3326    0.0000 C   0  0  1  0  0  0  0  0  0  0  0  0
   -1.2590    0.4433    0.0000 C   0  0  1  0  0  0  0  0  0  0  0  0
   -1.9103    0.9497    0.0000 C   0  0  0  0  0  0  0  0  0  0  0  0
   -2.5932    0.4867    0.0000 C   0  0  0  0  0  0  0  0  0  0  0  0
   -2.3639   -0.3058    0.0000 C   0  0  0  0  0  0  0  0  0  0  0  0
   -2.8702   -0.9571    0.0000 O   0  0  0  0  0  0  0  0  0  0  0  0
   -1.8992   -1.0750    0.0000 C   0  0  0  0  0  0  0  0  0  0  0  0
    0.6168   -0.6729    0.0000 C   0  0  0  0  0  0  0  0  0  0  0  0
    2.8977   -0.0529    0.0000 H   0  0  0  0  0  0  0  0  0  0  0  0
   -0.8233    1.0350    0.0000 H   0  0  0  0  0  0  0  0  0  0  0  0
    0.2860   -0.5904    0.0000 H   0  0  0  0  0  0  0  0  0  0  0  0
   -1.1191    1.0102    0.0000 H   0  0  0  0  0  0  0  0  0  0  0  0
    3.9587   -0.2029    0.0000 H   0  0  0  0  0  0  0  0  0  0  0  0
  1  2  1  0  0  0  0
  1 11  1  0  0  0  0
  2  3  1  0  0  0  0
  3  4  1  0  0  0  0
  3  5  1  0  0  0  0
  3 22  1  6  0  0  0
  4 26  1  0  0  0  0
  5  6  1  0  0  0  0
  6  7  2  0  0  0  0
  6 11  1  0  0  0  0
  7  8  1  0  0  0  0
  8  9  1  0  0  0  0
  9 10  1  1  0  0  0
  9 23  1  0  0  0  0
 10 11  1  1  0  0  0
 10 12  1  0  0  0  0
 10 24  1  0  0  0  0
 11 21  1  1  0  0  0
 12 13  1  0  0  0  0
 13 14  1  0  0  0  0
 14 15  1  1  0  0  0
 14 18  1  0  0  0  0
 14 20  1  0  0  0  0
 15  9  1  1  0  0  0
 15 16  1  0  0  0  0
 15 25  1  0  0  0  0
 16 17  1  0  0  0  0
 17 18  1  0  0  0  0
 18 19  2  0  0  0  0
M  END
$$$$
O=C1C[C@@H]2C([C@@]1(C)CC2)(C)C
 OpenBabel07182308452D

 12 13  0  0  0  0  0  0  0  0999 V2000
    1.6436    0.3570    0.0000 C   0  0  0  0  0  0  0  0  0  0  0  0
    0.2526    0.2537    0.0000 C   0  0  0  0  0  0  0  0  0  0  0  0
    1.3626   -0.1549    0.0000 C   0  0  0  0  0  0  0  0  0  0  0  0
    0.1351   -2.0602    0.0000 C   0  0  0  0  0  0  0  0  0  0  0  0
    0.5004   -1.3997    0.0000 C   0  0  0  0  0  0  0  0  0  0  0  0
    1.6411   -2.0402    0.0000 C   0  0  0  0  0  0  0  0  0  0  0  0
    0.9106   -1.6699    0.0000 C   0  0  2  0  0  0  0  0  0  0  0  0
    1.9362   -1.4148    0.0000 C   0  0  0  0  0  0  0  0  0  0  0  0
    0.9807   -0.1341    0.0000 C   0  0  0  0  0  0  0  0  0  0  0  0
    1.1407   -0.9495    0.0000 C   0  0  2  0  0  0  0  0  0  0  0  0
    2.7243   -1.1707    0.0000 O   0  0  0  0  0  0  0  0  0  0  0  0
    0.9094   -2.4949    0.0000 H   0  0  0  0  0  0  0  0  0  0  0  0
  5  4  1  0  0  0  0
  7  4  1  0  0  0  0
  7  6  1  0  0  0  0
  7 12  1  6  0  0  0
  8  6  1  0  0  0  0
  9  1  1  0  0  0  0
  9  2  1  0  0  0  0
  9  7  1  0  0  0  0
 10  3  1  1  0  0  0
 10  5  1  0  0  0  0
 10  8  1  0  0  0  0
 10  9  1  0  0  0  0
 11  8  2  0  0  0  0
M  END
$$$$
C[C@@H]1/C=C/C(=O)NC/C=C/C(=C/[C@@H](O)CC(=O)Cc2nc(C(=O)N3[C@@H](C(=O)OC1)CCC3)co2)/C
 OpenBabel07182308452D

 37 39  0  0  0  0  0  0  0  0999 V2000
   -1.0661    2.4706    0.0000 N   0  0  0  0  0  0  0  0  0  0  0  0
   -1.7799    2.8878    0.0000 C   0  0  0  0  0  0  0  0  0  0  0  0
   -1.7799    1.2376    0.0000 O   0  0  0  0  0  0  0  0  0  0  0  0
   -2.4937    2.4706    0.0000 C   0  0  0  0  0  0  0  0  0  0  0  0
   -2.4937    1.6455    0.0000 C   0  0  0  0  0  0  0  0  0  0  0  0
   -0.3523    2.8878    0.0000 C   0  0  0  0  0  0  0  0  0  0  0  0
    0.3616    2.4706    0.0000 C   0  0  0  0  0  0  0  0  0  0  0  0
    1.0661    2.8878    0.0000 C   0  0  0  0  0  0  0  0  0  0  0  0
    1.7799    2.4706    0.0000 C   0  0  0  0  0  0  0  0  0  0  0  0
    1.7799    1.6455    0.0000 C   0  0  0  0  0  0  0  0  0  0  0  0
    2.4938    2.8878    0.0000 C   0  0  0  0  0  0  0  0  0  0  0  0
    3.2077    2.4706    0.0000 C   0  0  2  0  0  0  0  0  0  0  0  0
    3.2077    1.6455    0.0000 C   0  0  0  0  0  0  0  0  0  0  0  0
   -1.7799    0.4125    0.0000 C   0  0  0  0  0  0  0  0  0  0  0  0
   -2.4937    0.0046    0.0000 O   0  0  0  0  0  0  0  0  0  0  0  0
   -3.2077    1.2376    0.0000 C   0  0  2  0  0  0  0  0  0  0  0  0
   -3.2077    0.4125    0.0000 C   0  0  0  0  0  0  0  0  0  0  0  0
    2.4938    0.4125    0.0000 N   0  0  0  0  0  0  0  0  0  0  0  0
    3.2077    0.0046    0.0000 C   0  0  0  0  0  0  0  0  0  0  0  0
    3.9215    1.2376    0.0000 C   0  0  0  0  0  0  0  0  0  0  0  0
    3.9215    0.4125    0.0000 C   0  0  0  0  0  0  0  0  0  0  0  0
    1.7799    0.0046    0.0000 C   0  0  0  0  0  0  0  0  0  0  0  0
    1.7799   -0.8204    0.0000 C   0  0  0  0  0  0  0  0  0  0  0  0
    3.2077   -0.8204    0.0000 O   0  0  0  0  0  0  0  0  0  0  0  0
    1.0661    0.4125    0.0000 C   0  0  0  0  0  0  0  0  0  0  0  0
    0.3616    0.0046    0.0000 N   0  0  0  0  0  0  0  0  0  0  0  0
    0.3616   -0.8204    0.0000 C   0  0  0  0  0  0  0  0  0  0  0  0
   -1.0661    0.0046    0.0000 C   0  0  2  0  0  0  0  0  0  0  0  0
   -0.3523   -1.2283    0.0000 C   0  0  0  0  0  0  0  0  0  0  0  0
   -1.0661   -0.8204    0.0000 C   0  0  0  0  0  0  0  0  0  0  0  0
   -1.7799    3.7036    0.0000 O   0  0  0  0  0  0  0  0  0  0  0  0
    3.9215    2.8878    0.0000 O   0  0  0  0  0  0  0  0  0  0  0  0
    4.6353    1.6455    0.0000 O   0  0  0  0  0  0  0  0  0  0  0  0
    1.0661    1.2376    0.0000 O   0  0  0  0  0  0  0  0  0  0  0  0
   -3.9215    1.6455    0.0000 C   0  0  0  0  0  0  0  0  0  0  0  0
   -1.0661    1.4861    0.0000 H   0  0  0  0  0  0  0  0  0  0  0  0
    4.7641    2.4073    0.0000 H   0  0  0  0  0  0  0  0  0  0  0  0
  1  2  1  0  0  0  0
  1  6  1  0  0  0  0
  1 36  1  0  0  0  0
  2  4  1  0  0  0  0
  2 31  2  0  0  0  0
  3 14  2  0  0  0  0
  4  5  2  0  0  0  0
  5 16  1  0  0  0  0
  6  7  1  0  0  0  0
  7  8  2  0  0  0  0
  8  9  1  0  0  0  0
  9 11  2  0  0  0  0
  9 10  1  0  0  0  0
 11 12  1  0  0  0  0
 12 13  1  0  0  0  0
 12 32  1  1  0  0  0
 13 20  1  0  0  0  0
 14 15  1  0  0  0  0
 15 17  1  0  0  0  0
 16 17  1  0  0  0  0
 16 35  1  6  0  0  0
 18 22  1  0  0  0  0
 18 19  2  0  0  0  0
 19 21  1  0  0  0  0
 19 24  1  0  0  0  0
 20 21  1  0  0  0  0
 20 33  2  0  0  0  0
 22 25  1  0  0  0  0
 22 23  2  0  0  0  0
 23 24  1  0  0  0  0
 25 26  1  0  0  0  0
 25 34  2  0  0  0  0
 26 27  1  0  0  0  0
 26 28  1  0  0  0  0
 27 29  1  0  0  0  0
 28 14  1  0  0  0  0
 28 30  1  6  0  0  0
 29 30  1  0  0  0  0
 32 37  1  0  0  0  0
M  END
$$$$
CC1=C(C)SC=[NH+]1
 OpenBabel07182308452D

  7  7  0  0  1  0  0  0  0  0999 V2000
   -3.0660    3.8961    0.0000 N   0  3  0  0  0  0  0  0  0  0  0  0
   -3.4785    4.6106    0.0000 C   0  0  0  0  0  0  0  0  0  0  0  0
   -2.9265    5.2237    0.0000 S   0  0  0  0  0  0  0  0  0  0  0  0
   -2.1728    4.8881    0.0000 C   0  0  0  0  0  0  0  0  0  0  0  0
   -1.4583    5.3006    0.0000 C   0  0  0  0  0  0  0  0  0  0  0  0
   -2.2590    4.0676    0.0000 C   0  0  0  0  0  0  0  0  0  0  0  0
   -1.6459    3.5156    0.0000 C   0  0  0  0  0  0  0  0  0  0  0  0
  1  2  2  0  0  0  0
  1  6  1  0  0  0  0
  2  3  1  0  0  0  0
  3  4  1  0  0  0  0
  4  5  1  0  0  0  0
  4  6  2  0  0  0  0
  6  7  1  0  0  0  0
M  CHG  1   1   1
M  END
$$$$
Cc1cccc(c1)O
 OpenBabel07182308452D
Marvin  09140623232D
  9  9  0  0  0  0  0  0  0  0999 V2000
   -0.1299   -0.3750    0.0000 C   0  0  0  0  0  0  0  0  0  0  0  0
    0.5846    0.0375    0.0000 C   0  0  0  0  0  0  0  0  0  0  0  0
   -0.8444    0.0375    0.0000 C   0  0  0  0  0  0  0  0  0  0  0  0
    0.5846    0.8625    0.0000 C   0  0  0  0  0  0  0  0  0  0  0  0
    1.2990   -0.3750    0.0000 O   0  0  0  0  0  0  0  0  0  0  0  0
   -0.8444    0.8625    0.0000 C   0  0  0  0  0  0  0  0  0  0  0  0
   -0.1299    1.2750    0.0000 C   0  0  0  0  0  0  0  0  0  0  0  0
   -0.1299    2.1000    0.0000 C   0  0  0  0  0  0  0  0  0  0  0  0
    1.2990   -1.3120    0.0000 H   0  0  0  0  0  0  0  0  0  0  0  0
  1  2  2  0  0  0  0
  1  3  1  0  0  0  0
  2  4  1  0  0  0  0
  2  5  1  0  0  0  0
  3  6  2  0  0  0  0
  4  7  2  0  0  0  0
  5  9  1  0  0  0  0
  6  7  1  0  0  0  0
  7  8  1  0  0  0  0
M  END
$$$$
O[C@@H]1CC[C@]2([C@@H](C1)C[C@H]([C@@H]1[C@@H]2C[C@H](O)[C@]2([C@H]1CCC2)C)O)C
 OpenBabel07182308452D

 33 36  0  0  0  0  0  0  0  0999 V2000
    2.3153   -0.2050    0.0000 C   0  0  0  0  0  0  0  0  0  0  0  0
    3.1274   -0.0597    0.0000 C   0  0  0  0  0  0  0  0  0  0  0  0
    3.4077    0.7162    0.0000 C   0  0  1  0  0  0  0  0  0  0  0  0
    4.2198    0.8614    0.0000 O   0  0  0  0  0  0  0  0  0  0  0  0
    2.8759    1.3469    0.0000 C   0  0  0  0  0  0  0  0  0  0  0  0
    2.0637    1.2017    0.0000 C   0  0  1  0  0  0  0  0  0  0  0  0
    1.5319    1.8324    0.0000 C   0  0  0  0  0  0  0  0  0  0  0  0
    0.7198    1.6872    0.0000 C   0  0  1  0  0  0  0  0  0  0  0  0
    0.1880    2.3179    0.0000 O   0  0  0  0  0  0  0  0  0  0  0  0
    0.4395    0.9112    0.0000 C   0  0  2  0  0  0  0  0  0  0  0  0
    0.9713    0.2805    0.0000 C   0  0  1  0  0  0  0  0  0  0  0  0
    1.7834    0.4257    0.0000 C   0  0  1  0  0  0  0  0  0  0  0  0
    0.6910   -0.4954    0.0000 C   0  0  0  0  0  0  0  0  0  0  0  0
   -0.1211   -0.6406    0.0000 C   0  0  2  0  0  0  0  0  0  0  0  0
   -0.4014   -1.4165    0.0000 O   0  0  0  0  0  0  0  0  0  0  0  0
   -0.6529   -0.0099    0.0000 C   0  0  1  0  0  0  0  0  0  0  0  0
   -0.3726    0.7660    0.0000 C   0  0  1  0  0  0  0  0  0  0  0  0
   -1.0239    1.2724    0.0000 C   0  0  0  0  0  0  0  0  0  0  0  0
   -1.7068    0.8094    0.0000 C   0  0  0  0  0  0  0  0  0  0  0  0
   -1.4775    0.0169    0.0000 C   0  0  0  0  0  0  0  0  0  0  0  0
   -1.0128   -0.7523    0.0000 C   0  0  0  0  0  0  0  0  0  0  0  0
    1.5031   -0.3502    0.0000 C   0  0  0  0  0  0  0  0  0  0  0  0
    3.7841    0.2698    0.0000 H   0  0  0  0  0  0  0  0  0  0  0  0
    2.2621    1.7509    0.0000 H   0  0  0  0  0  0  0  0  0  0  0  0
    0.9182    2.2364    0.0000 H   0  0  0  0  0  0  0  0  0  0  0  0
    0.0631    1.3576    0.0000 H   0  0  0  0  0  0  0  0  0  0  0  0
    1.1724   -0.2677    0.0000 H   0  0  0  0  0  0  0  0  0  0  0  0
    0.2553   -1.0870    0.0000 H   0  0  0  0  0  0  0  0  0  0  0  0
   -0.2327    1.3329    0.0000 H   0  0  0  0  0  0  0  0  0  0  0  0
   -1.0636   -0.3950    0.0000 H   0  0  0  0  0  0  0  0  0  0  0  0
    4.8451    0.1198    0.0000 H   0  0  0  0  0  0  0  0  0  0  0  0
    0.5176    3.2302    0.0000 H   0  0  0  0  0  0  0  0  0  0  0  0
   -1.3563   -1.5872    0.0000 H   0  0  0  0  0  0  0  0  0  0  0  0
  1  2  1  0  0  0  0
  1 12  1  0  0  0  0
  2  3  1  0  0  0  0
  3  4  1  0  0  0  0
  3  5  1  0  0  0  0
  3 23  1  1  0  0  0
  4 31  1  0  0  0  0
  5  6  1  0  0  0  0
  6  7  1  0  0  0  0
  6 12  1  1  0  0  0
  6 24  1  0  0  0  0
  7  8  1  0  0  0  0
  8  9  1  0  0  0  0
  8 10  1  1  0  0  0
  8 25  1  0  0  0  0
  9 32  1  0  0  0  0
 10 11  1  1  0  0  0
 10 26  1  0  0  0  0
 11 12  1  1  0  0  0
 11 13  1  0  0  0  0
 11 27  1  0  0  0  0
 12 22  1  1  0  0  0
 13 14  1  0  0  0  0
 14 15  1  0  0  0  0
 14 16  1  1  0  0  0
 14 28  1  0  0  0  0
 15 33  1  0  0  0  0
 16 17  1  1  0  0  0
 16 20  1  0  0  0  0
 16 21  1  0  0  0  0
 17 10  1  1  0  0  0
 17 18  1  0  0  0  0
 17 29  1  0  0  0  0
 18 19  1  0  0  0  0
 19 20  1  0  0  0  0
 20 30  1  0  0  0  0
M  END
$$$$
C/C=C\1/[C@@H](O)C[C@]2([C@H]1C[C@@H](O)[C@@H]1[C@]2(C)CC[C@@H]2[C@]1(C)CC[C@H]([C@H]2C)O)C
 OpenBabel07182308452D

 31 34  0  0  0  0  0  0  0  0999 V2000
   -2.3805   -1.1587    0.0000 C   0  0  0  0  0  0  0  0  0  0  0  0
   -3.0949   -1.5712    0.0000 C   0  0  0  0  0  0  0  0  0  0  0  0
   -0.9515   -2.8087    0.0000 C   0  0  0  0  0  0  0  0  0  0  0  0
   -0.2371   -2.3962    0.0000 C   0  0  0  0  0  0  0  0  0  0  0  0
   -1.6660   -1.5712    0.0000 C   0  0  2  0  0  0  0  0  0  0  0  0
   -0.2371    0.0787    0.0000 C   0  0  0  0  0  0  0  0  0  0  0  0
    1.2619   -1.4136    0.0000 C   0  0  0  0  0  0  0  0  0  0  0  0
   -1.6660   -0.7462    0.0000 C   0  0  0  0  0  0  0  0  0  0  0  0
   -0.9515   -1.1587    0.0000 C   0  0  1  0  0  0  0  0  0  0  0  0
   -0.9515   -1.9837    0.0000 H   0  0  0  0  0  0  0  0  0  0  0  0
   -0.2371   -1.5712    0.0000 C   0  0  1  0  0  0  0  0  0  0  0  0
    0.4773   -1.1587    0.0000 C   0  0  2  0  0  0  0  0  0  0  0  0
    0.4773   -0.3337    0.0000 C   0  0  2  0  0  0  0  0  0  0  0  0
   -0.2371   -0.7462    0.0000 C   0  0  0  0  0  0  0  0  0  0  0  0
    0.4773    0.4913    0.0000 H   0  0  0  0  0  0  0  0  0  0  0  0
    0.4773   -1.9837    0.0000 C   0  0  0  0  0  0  0  0  0  0  0  0
   -1.6660   -2.3962    0.0000 C   0  0  2  0  0  0  0  0  0  0  0  0
   -1.6660   -3.2212    0.0000 H   0  0  0  0  0  0  0  0  0  0  0  0
   -3.0949   -2.3962    0.0000 C   0  0  1  0  0  0  0  0  0  0  0  0
   -3.8094   -2.8087    0.0000 O   0  0  0  0  0  0  0  0  0  0  0  0
   -2.3805   -2.8087    0.0000 C   0  0  1  0  0  0  0  0  0  0  0  0
   -2.3805   -3.6337    0.0000 C   0  0  0  0  0  0  0  0  0  0  0  0
    1.7469   -0.7462    0.0000 C   0  0  2  0  0  0  0  0  0  0  0  0
    2.5719   -0.7462    0.0000 O   0  0  0  0  0  0  0  0  0  0  0  0
    1.2619   -0.0788    0.0000 C   0  0  0  0  0  0  0  0  0  0  0  0
   -0.9515   -0.3337    0.0000 C   0  0  2  0  0  0  0  0  0  0  0  0
    1.2619    0.7461    0.0000 C   0  0  0  0  0  0  0  0  0  0  0  0
    0.5474    1.1587    0.0000 C   0  0  0  0  0  0  0  0  0  0  0  0
   -1.6660    0.0787    0.0000 O   0  0  0  0  0  0  0  0  0  0  0  0
   -4.6494   -2.3237    0.0000 H   0  0  0  0  0  0  0  0  0  0  0  0
   -1.6661    1.0487    0.0000 H   0  0  0  0  0  0  0  0  0  0  0  0
  2  1  1  0  0  0  0
  3  4  1  0  0  0  0
  5  9  1  6  0  0  0
  5  8  1  0  0  0  0
  5  1  1  0  0  0  0
  9 11  1  6  0  0  0
  9 10  1  0  0  0  0
 11 12  1  1  0  0  0
 11  4  1  0  0  0  0
 11 14  1  0  0  0  0
 12 13  1  1  0  0  0
 12  7  1  0  0  0  0
 12 16  1  0  0  0  0
 13 25  1  0  0  0  0
 13  6  1  0  0  0  0
 13 15  1  6  0  0  0
 17  5  1  6  0  0  0
 17  3  1  0  0  0  0
 17 18  1  0  0  0  0
 19 21  1  0  0  0  0
 19  2  1  0  0  0  0
 19 20  1  6  0  0  0
 20 30  1  0  0  0  0
 21 17  1  6  0  0  0
 21 22  1  0  0  0  0
 23 25  1  0  0  0  0
 23  7  1  0  0  0  0
 23 24  1  1  0  0  0
 25 27  2  0  0  0  0
 26  9  1  6  0  0  0
 26  6  1  0  0  0  0
 26 29  1  0  0  0  0
 27 28  1  0  0  0  0
 29 31  1  0  0  0  0
M  END
$$$$
CC=C(C)C
 OpenBabel07182308452D

  5  4  0  0  0  0  0  0  0  0999 V2000
    0.5474    1.9837    0.0000 C   0  0  0  0  0  0  0  0  0  0  0  0
    1.2619    2.3962    0.0000 C   0  0  0  0  0  0  0  0  0  0  0  0
    0.5474    3.6337    0.0000 C   0  0  0  0  0  0  0  0  0  0  0  0
    1.2619    3.2212    0.0000 C   0  0  0  0  0  0  0  0  0  0  0  0
    1.9763    3.6337    0.0000 C   0  0  0  0  0  0  0  0  0  0  0  0
  1  2  1  0  0  0  0
  2  4  2  0  0  0  0
  4  3  1  0  0  0  0
  4  5  1  0  0  0  0
M  END
$$$$
O[C@H]1CC[C@]2(C(=CC[C@@H]3[C@@H]2CC[C@]2([C@H]3CCC2)C)C1)C
 OpenBabel07182308452D

 24 27  0  0  0  0  0  0  0  0999 V2000
   -1.6377   -0.4137    0.0000 C   0  0  0  0  0  0  0  0  0  0  0  0
   -2.3522   -0.8263    0.0000 C   0  0  0  0  0  0  0  0  0  0  0  0
   -2.3522   -1.6512    0.0000 C   0  0  1  0  0  0  0  0  0  0  0  0
   -1.6377   -2.0637    0.0000 C   0  0  0  0  0  0  0  0  0  0  0  0
   -0.9232   -1.6512    0.0000 C   0  0  0  0  0  0  0  0  0  0  0  0
   -0.2087   -2.0637    0.0000 C   0  0  0  0  0  0  0  0  0  0  0  0
    0.5056   -1.6512    0.0000 C   0  0  0  0  0  0  0  0  0  0  0  0
   -0.2087    0.4112    0.0000 C   0  0  0  0  0  0  0  0  0  0  0  0
    0.5056    0.8237    0.0000 C   0  0  0  0  0  0  0  0  0  0  0  0
    1.2201   -1.2387    0.0000 H   0  0  0  0  0  0  0  0  0  0  0  0
   -0.2087   -0.4137    0.0000 C   0  0  2  0  0  0  0  0  0  0  0  0
   -0.2087   -1.2387    0.0000 H   0  0  0  0  0  0  0  0  0  0  0  0
    1.2201    1.2362    0.0000 C   0  0  0  0  0  0  0  0  0  0  0  0
   -0.9232   -0.8263    0.0000 C   0  0  1  0  0  0  0  0  0  0  0  0
   -0.9232   -0.0012    0.0000 C   0  0  0  0  0  0  0  0  0  0  0  0
    0.5056   -0.8263    0.0000 C   0  0  2  0  0  0  0  0  0  0  0  0
    0.5056   -0.0012    0.0000 H   0  0  0  0  0  0  0  0  0  0  0  0
    2.0047    0.6661    0.0000 C   0  0  0  0  0  0  0  0  0  0  0  0
    1.2201    0.4112    0.0000 C   0  0  2  0  0  0  0  0  0  0  0  0
    2.0047   -0.6687    0.0000 C   0  0  0  0  0  0  0  0  0  0  0  0
    2.4896   -0.0012    0.0000 C   0  0  0  0  0  0  0  0  0  0  0  0
    1.2201   -0.4137    0.0000 C   0  0  1  0  0  0  0  0  0  0  0  0
   -3.0666   -2.0637    0.0000 O   0  0  0  0  0  0  0  0  0  0  0  0
   -3.9067   -1.5787    0.0000 H   0  0  0  0  0  0  0  0  0  0  0  0
  2  1  1  0  0  0  0
  3  4  1  0  0  0  0
  3  2  1  0  0  0  0
  3 23  1  1  0  0  0
  4  5  1  0  0  0  0
  6  7  1  0  0  0  0
  6  5  2  0  0  0  0
  8  9  1  0  0  0  0
 11  8  1  0  0  0  0
 11 14  1  1  0  0  0
 11 12  1  0  0  0  0
 14  5  1  0  0  0  0
 14  1  1  0  0  0  0
 14 15  1  1  0  0  0
 16 22  1  6  0  0  0
 16 11  1  0  0  0  0
 16  7  1  0  0  0  0
 16 17  1  0  0  0  0
 18 21  1  0  0  0  0
 19  9  1  0  0  0  0
 19 13  1  0  0  0  0
 19 18  1  0  0  0  0
 19 22  1  1  0  0  0
 21 20  1  0  0  0  0
 22 10  1  6  0  0  0
 22 20  1  0  0  0  0
 23 24  1  0  0  0  0
M  END
$$$$
Oc1ccc2c(c1)c(C)c[nH]2
 OpenBabel07182308452D

 13 14  0  0  0  0  0  0  0  0999 V2000
   -0.7145    0.4125    0.0000 C   0  0  0  0  0  0  0  0  0  0  0  0
    0.0000    0.8250    0.0000 C   0  0  0  0  0  0  0  0  0  0  0  0
   -0.7145   -0.4125    0.0000 C   0  0  0  0  0  0  0  0  0  0  0  0
   -1.4991   -0.6674    0.0000 N   0  0  0  0  0  0  0  0  0  0  0  0
   -1.9840    0.0000    0.0000 C   0  0  0  0  0  0  0  0  0  0  0  0
   -1.4991    0.6674    0.0000 C   0  0  0  0  0  0  0  0  0  0  0  0
   -1.8347    1.4211    0.0000 C   0  0  0  0  0  0  0  0  0  0  0  0
   -2.8045    0.0862    0.0000 C   0  0  0  0  0  0  0  0  0  0  0  0
   -3.1401    0.8399    0.0000 C   0  0  0  0  0  0  0  0  0  0  0  0
   -2.6551    1.5074    0.0000 C   0  0  0  0  0  0  0  0  0  0  0  0
   -2.9907    2.2610    0.0000 O   0  0  0  0  0  0  0  0  0  0  0  0
   -1.8033   -1.6037    0.0000 H   0  0  0  0  0  0  0  0  0  0  0  0
   -2.4400    3.0191    0.0000 H   0  0  0  0  0  0  0  0  0  0  0  0
  1  6  1  0  0  0  0
  1  2  1  0  0  0  0
  1  3  2  0  0  0  0
  3  4  1  0  0  0  0
  4  5  1  0  0  0  0
  4 12  1  0  0  0  0
  5  6  2  0  0  0  0
  5  8  1  0  0  0  0
  6  7  1  0  0  0  0
  7 10  2  0  0  0  0
  8  9  2  0  0  0  0
  9 10  1  0  0  0  0
 10 11  1  0  0  0  0
 11 13  1  0  0  0  0
M  END
$$$$
O=c1nc[nH]c(=O)[nH]1
 OpenBabel07182308452D

 10 10  0  0  0  0  0  0  0  0999 V2000
    1.4289    0.0000    0.0000 C   0  0  0  0  0  0  0  0  0  0  0  0
    0.7145   -0.4125    0.0000 N   0  0  0  0  0  0  0  0  0  0  0  0
    0.0000    0.0000    0.0000 C   0  0  0  0  0  0  0  0  0  0  0  0
   -0.7145   -0.4125    0.0000 O   0  0  0  0  0  0  0  0  0  0  0  0
    0.0000    0.8250    0.0000 N   0  0  0  0  0  0  0  0  0  0  0  0
    0.7145    1.2375    0.0000 C   0  0  0  0  0  0  0  0  0  0  0  0
    0.7145    2.0625    0.0000 O   0  0  0  0  0  0  0  0  0  0  0  0
    1.4289    0.8250    0.0000 N   0  0  0  0  0  0  0  0  0  0  0  0
   -0.8526    1.3173    0.0000 H   0  0  0  0  0  0  0  0  0  0  0  0
    2.2815    1.3172    0.0000 H   0  0  0  0  0  0  0  0  0  0  0  0
  1  2  2  0  0  0  0
  1  8  1  0  0  0  0
  2  3  1  0  0  0  0
  3  4  2  0  0  0  0
  3  5  1  0  0  0  0
  5  6  1  0  0  0  0
  5  9  1  0  0  0  0
  6  7  2  0  0  0  0
  6  8  1  0  0  0  0
  8 10  1  0  0  0  0
M  END
$$$$
BrC=C
 OpenBabel07182308452D

  3  2  0  0  0  0  0  0  0  0999 V2000
    2.5387    2.3320    0.0000 Br  0  0  0  0  0  0  0  0  0  0  0  0
    1.6712    1.2606    0.0000 C   0  0  0  0  0  0  0  0  0  0  0  0
    2.4572    1.5109    0.0000 C   0  0  0  0  0  0  0  0  0  0  0  0
  1  3  1  0  0  0  0
  2  3  2  0  0  0  0
M  END
$$$$
O=C1NC[C@@H](C)OP(=O)([O-])O[C@@H]2CO[C@@H]([C@@H]2O)n2c[n+]([Co-3]345(N6C7=C(C)C8=[N+]4C(=CC4=[N+]5C(=C(C5=[N+]3[C@]([C@H]6[C@@H]([C@]7(CC1)C)C)(C)C(C)(C)[C@@H]5C)C)C([C@@H]4C)C)C([C@@H]8C)(C)C)C)c1cc(C)c(cc21)C
 OpenBabel07182308452D

 71 82  0  0  0  0  0  0  0  0999 V2000
   -0.3218    2.2434    0.0000 Co  0  7  0  0  0  0  0  0  0  0  0  0
   -1.0291    0.5413    0.0000 C   0  0  0  0  0  0  0  0  0  0  0  0
   -1.1410    1.3449    0.0000 N   0  0  0  0  0  0  0  0  0  0  0  0
   -1.1410    3.0429    0.0000 N   0  3  0  0  0  0  0  0  0  0  0  0
   -1.0291    3.8464    0.0000 C   0  0  0  0  0  0  0  0  0  0  0  0
   -1.7415    4.2233    0.0000 C   0  0  2  0  0  0  0  0  0  0  0  0
    0.4120    3.8464    0.0000 C   0  0  0  0  0  0  0  0  0  0  0  0
    0.5364    3.0429    0.0000 N   0  3  0  0  0  0  0  0  0  0  0  0
    1.3605    2.8938    0.0000 C   0  0  0  0  0  0  0  0  0  0  0  0
    1.7747    2.1938    0.0000 C   0  0  0  0  0  0  0  0  0  0  0  0
    1.3605    1.4897    0.0000 C   0  0  0  0  0  0  0  0  0  0  0  0
    0.5364    1.3449    0.0000 N   0  3  0  0  0  0  0  0  0  0  0  0
    0.4120    0.5413    0.0000 C   0  0  0  0  0  0  0  0  0  0  0  0
    1.1493    0.1603    0.0000 C   0  0  1  0  0  0  0  0  0  0  0  0
    1.2717   -0.6555    0.0000 C   0  0  0  0  0  0  0  0  0  0  0  0
    1.7415    0.7401    0.0000 C   0  0  0  0  0  0  0  0  0  0  0  0
    2.3797    0.2172    0.0000 C   0  0  0  0  0  0  0  0  0  0  0  0
    2.5134    1.0313    0.0000 C   0  0  0  0  0  0  0  0  0  0  0  0
    1.9001    4.5651    0.0000 C   0  0  0  0  0  0  0  0  0  0  0  0
   -0.2919    4.2563    0.0000 C   0  0  0  0  0  0  0  0  0  0  0  0
   -0.2919    5.0814    0.0000 C   0  0  0  0  0  0  0  0  0  0  0  0
   -0.2919    0.1271    0.0000 C   0  0  0  0  0  0  0  0  0  0  0  0
   -0.2919   -0.6978    0.0000 C   0  0  0  0  0  0  0  0  0  0  0  0
   -1.9527    1.4897    0.0000 C   0  0  1  0  0  0  0  0  0  0  0  0
   -2.7496    1.7032    0.0000 H   0  0  0  0  0  0  0  0  0  0  0  0
   -1.9527    2.9186    0.0000 C   0  0  2  0  0  0  0  0  0  0  0  0
   -2.7496    2.7051    0.0000 C   0  0  0  0  0  0  0  0  0  0  0  0
   -1.7415   -0.6646    0.0000 C   0  0  0  0  0  0  0  0  0  0  0  0
    1.7415    3.6434    0.0000 C   0  0  1  0  0  0  0  0  0  0  0  0
    2.4560    4.0559    0.0000 C   0  0  0  0  0  0  0  0  0  0  0  0
    1.1493    4.2233    0.0000 C   0  0  3  0  0  0  0  0  0  0  0  0
   -3.0481    3.2309    0.0000 C   0  0  0  0  0  0  0  0  0  0  0  0
   -2.3337    0.7401    0.0000 C   0  0  2  0  0  0  0  0  0  0  0  0
   -3.0481    0.3276    0.0000 C   0  0  0  0  0  0  0  0  0  0  0  0
    1.3208   -3.2803    0.0000 C   0  0  0  0  0  0  0  0  0  0  0  0
    0.0000   -3.0876    0.0000 C   0  0  0  0  0  0  0  0  0  0  0  0
    0.9553   -4.0199    0.0000 C   0  0  0  0  0  0  0  0  0  0  0  0
    0.7303   -2.7041    0.0000 N   0  3  0  0  0  0  0  0  0  0  0  0
    0.1389   -3.9009    0.0000 N   0  0  0  0  0  0  0  0  0  0  0  0
   -0.4379   -4.4925    0.0000 C   0  0  1  0  0  0  0  0  0  0  0  0
   -0.6928   -5.2771    0.0000 O   0  0  0  0  0  0  0  0  0  0  0  0
   -1.5178   -5.2771    0.0000 C   0  0  0  0  0  0  0  0  0  0  0  0
   -1.1053   -4.0076    0.0000 C   0  0  2  0  0  0  0  0  0  0  0  0
   -1.1053   -3.1826    0.0000 O   0  0  0  0  0  0  0  0  0  0  0  0
   -1.7727   -4.4925    0.0000 C   0  0  2  0  0  0  0  0  0  0  0  0
   -2.5574   -4.2376    0.0000 O   0  0  0  0  0  0  0  0  0  0  0  0
   -2.4560   -1.0771    0.0000 C   0  0  0  0  0  0  0  0  0  0  0  0
   -3.1703   -1.4896    0.0000 C   0  0  0  0  0  0  0  0  0  0  0  0
   -3.8849   -1.0771    0.0000 O   0  0  0  0  0  0  0  0  0  0  0  0
   -3.1703   -2.3146    0.0000 N   0  0  0  0  0  0  0  0  0  0  0  0
   -3.8849   -2.7271    0.0000 C   0  0  0  0  0  0  0  0  0  0  0  0
   -2.4560   -0.2521    0.0000 C   0  0  0  0  0  0  0  0  0  0  0  0
   -1.7415    0.1603    0.0000 C   0  0  1  0  0  0  0  0  0  0  0  0
   -3.8849   -3.5521    0.0000 C   0  0  2  0  0  0  0  0  0  0  0  0
   -3.1705   -3.9647    0.0000 O   0  0  0  0  0  0  0  0  0  0  0  0
   -4.5994   -3.9647    0.0000 C   0  0  0  0  0  0  0  0  0  0  0  0
   -3.9955   -4.7897    0.0000 O   0  0  0  0  0  0  0  0  0  0  0  0
   -3.1705   -4.7897    0.0000 P   0  0  3  0  0  0  0  0  0  0  0  0
   -2.7580   -5.5042    0.0000 O   0  5  0  0  0  0  0  0  0  0  0  0
   -2.3337    3.6434    0.0000 C   0  0  0  0  0  0  0  0  0  0  0  0
   -2.9846    4.1373    0.0000 C   0  0  0  0  0  0  0  0  0  0  0  0
    1.4130   -4.7064    0.0000 C   0  0  0  0  0  0  0  0  0  0  0  0
    2.6018   -3.9134    0.0000 C   0  0  0  0  0  0  0  0  0  0  0  0
   -1.7483    5.0483    0.0000 C   0  0  0  0  0  0  0  0  0  0  0  0
    2.2364   -4.6530    0.0000 C   0  0  0  0  0  0  0  0  0  0  0  0
    2.1441   -3.2271    0.0000 C   0  0  0  0  0  0  0  0  0  0  0  0
    2.6941   -5.3395    0.0000 C   0  0  0  0  0  0  0  0  0  0  0  0
    3.4250   -3.8603    0.0000 C   0  0  0  0  0  0  0  0  0  0  0  0
   -0.3206    3.3121    0.0000 C   0  0  0  0  0  0  0  0  0  0  0  0
   -0.2653   -2.6976    0.0000 H   0  0  0  0  0  0  0  0  0  0  0  0
   -2.3177   -2.8069    0.0000 H   0  0  0  0  0  0  0  0  0  0  0  0
  1 69  1  0  0  0  0
  1 38  1  0  0  0  0
  2  3  1  0  0  0  0
  3  1  1  0  0  0  0
  4  5  2  0  0  0  0
  4  1  1  0  0  0  0
  5 20  1  0  0  0  0
  6  5  1  0  0  0  0
  6 64  1  6  0  0  0
  7  8  1  0  0  0  0
  8  9  2  0  0  0  0
  8  1  1  0  0  0  0
  9 10  1  0  0  0  0
 10 11  2  0  0  0  0
 11 12  1  0  0  0  0
 11 16  1  0  0  0  0
 12 13  2  0  0  0  0
 12  1  1  0  0  0  0
 13 14  1  0  0  0  0
 14 15  1  6  0  0  0
 14 16  1  0  0  0  0
 16 17  1  0  0  0  0
 16 18  1  0  0  0  0
 20  7  2  0  0  0  0
 20 21  1  0  0  0  0
 22  2  2  0  0  0  0
 22 13  1  0  0  0  0
 22 23  1  0  0  0  0
 24  3  1  0  0  0  0
 24 26  1  6  0  0  0
 24 25  1  0  0  0  0
 26  4  1  0  0  0  0
 26 60  1  0  0  0  0
 26 27  1  6  0  0  0
 29  9  1  0  0  0  0
 29 31  1  0  0  0  0
 29 30  1  6  0  0  0
 31  7  1  0  0  0  0
 31 19  1  0  0  0  0
 33 24  1  1  0  0  0
 33 53  1  0  0  0  0
 33 34  1  0  0  0  0
 35 38  1  0  0  0  0
 35 37  1  0  0  0  0
 36 39  1  0  0  0  0
 36 38  2  0  0  0  0
 37 62  2  0  0  0  0
 39 37  1  0  0  0  0
 40 39  1  0  0  0  0
 40 43  1  0  0  0  0
 40 41  1  1  0  0  0
 42 41  1  0  0  0  0
 43 45  1  0  0  0  0
 43 44  1  1  0  0  0
 44 70  1  0  0  0  0
 45 42  1  1  0  0  0
 45 46  1  0  0  0  0
 47 48  1  0  0  0  0
 48 49  2  0  0  0  0
 48 50  1  0  0  0  0
 50 71  1  0  0  0  0
 51 50  1  0  0  0  0
 52 47  1  0  0  0  0
 53  2  1  0  0  0  0
 53 28  1  1  0  0  0
 53 52  1  0  0  0  0
 54 51  1  0  0  0  0
 54 55  1  0  0  0  0
 54 56  1  6  0  0  0
 58 46  1  0  0  0  0
 58 55  1  0  0  0  0
 58 57  2  0  0  0  0
 58 59  1  0  0  0  0
 60  6  1  0  0  0  0
 60 32  1  0  0  0  0
 60 61  1  0  0  0  0
 62 65  1  0  0  0  0
 63 68  1  0  0  0  0
 65 63  2  0  0  0  0
 65 67  1  0  0  0  0
 66 35  2  0  0  0  0
 66 63  1  0  0  0  0
M  CHG  6   1  -3   4   1   8   1  12   1  38   1  59  -1
M  END
$$$$
O[C@H]1COC[C@H]1O
 OpenBabel07182308452D

 10 10  0  0  0  0  0  0  0  0999 V2000
    1.1359   -0.7252    0.0000 C   0  0  0  0  0  0  0  0  0  0  0  0
    2.4708   -0.7252    0.0000 C   0  0  0  0  0  0  0  0  0  0  0  0
    1.8034   -0.2402    0.0000 O   0  0  0  0  0  0  0  0  0  0  0  0
    2.2159   -1.5099    0.0000 C   0  0  2  0  0  0  0  0  0  0  0  0
    1.3909   -1.5099    0.0000 C   0  0  1  0  0  0  0  0  0  0  0  0
    0.9059   -2.1772    0.0000 O   0  0  0  0  0  0  0  0  0  0  0  0
    2.7008   -2.1773    0.0000 O   0  0  0  0  0  0  0  0  0  0  0  0
    0.5495   -1.3116    0.0000 H   0  0  0  0  0  0  0  0  0  0  0  0
   -0.0588   -2.0756    0.0000 H   0  0  0  0  0  0  0  0  0  0  0  0
    2.3063   -3.0634    0.0000 H   0  0  0  0  0  0  0  0  0  0  0  0
  1  3  1  0  0  0  0
  1  8  1  0  0  0  0
  3  2  1  0  0  0  0
  4  2  1  0  0  0  0
  4  7  1  1  0  0  0
  5  4  1  0  0  0  0
  5  1  1  0  0  0  0
  5  6  1  1  0  0  0
  6  9  1  0  0  0  0
  7 10  1  0  0  0  0
M  END
$$$$
O[C@@H]1CC[C@]2([C@@H](C1)CC[C@@H]1[C@@H]2C[C@H](O)[C@]2([C@H]1CCC2)C)C
 OpenBabel07182308452D

 27 30  0  0  0  0  0  0  0  0999 V2000
   -2.4539   -2.3339    0.0000 C   0  0  2  0  0  0  0  0  0  0  0  0
   -2.4539   -1.5089    0.0000 C   0  0  0  0  0  0  0  0  0  0  0  0
   -1.7395   -1.0964    0.0000 C   0  0  0  0  0  0  0  0  0  0  0  0
   -1.7395   -2.7464    0.0000 C   0  0  0  0  0  0  0  0  0  0  0  0
   -1.0250   -2.3339    0.0000 C   0  0  1  0  0  0  0  0  0  0  0  0
   -0.3105   -2.7464    0.0000 C   0  0  0  0  0  0  0  0  0  0  0  0
    0.4040   -2.3339    0.0000 C   0  0  0  0  0  0  0  0  0  0  0  0
    0.4040   -1.5089    0.0000 C   0  0  1  0  0  0  0  0  0  0  0  0
    1.1184   -1.0964    0.0000 C   0  0  2  0  0  0  0  0  0  0  0  0
    1.9030   -1.3513    0.0000 C   0  0  0  0  0  0  0  0  0  0  0  0
    2.3880   -0.6839    0.0000 C   0  0  0  0  0  0  0  0  0  0  0  0
    1.9030   -0.0164    0.0000 C   0  0  0  0  0  0  0  0  0  0  0  0
    1.1184   -0.2714    0.0000 C   0  0  2  0  0  0  0  0  0  0  0  0
    1.1184    0.5536    0.0000 C   0  0  0  0  0  0  0  0  0  0  0  0
    0.4040    0.1411    0.0000 C   0  0  2  0  0  0  0  0  0  0  0  0
   -0.3105   -0.2714    0.0000 C   0  0  0  0  0  0  0  0  0  0  0  0
   -0.3105   -1.0964    0.0000 C   0  0  2  0  0  0  0  0  0  0  0  0
   -1.0250   -1.5089    0.0000 C   0  0  1  0  0  0  0  0  0  0  0  0
   -1.0250   -0.6839    0.0000 C   0  0  0  0  0  0  0  0  0  0  0  0
    0.4040    0.9661    0.0000 O   0  0  0  0  0  0  0  0  0  0  0  0
   -3.1684   -2.7464    0.0000 O   0  0  0  0  0  0  0  0  0  0  0  0
   -1.0250   -3.1589    0.0000 H   0  0  0  0  0  0  0  0  0  0  0  0
   -0.3105   -1.9214    0.0000 H   0  0  0  0  0  0  0  0  0  0  0  0
    0.4040   -0.6839    0.0000 H   0  0  0  0  0  0  0  0  0  0  0  0
    1.1184   -1.9214    0.0000 H   0  0  0  0  0  0  0  0  0  0  0  0
    1.2440    1.4511    0.0000 H   0  0  0  0  0  0  0  0  0  0  0  0
   -4.0084   -2.2614    0.0000 H   0  0  0  0  0  0  0  0  0  0  0  0
  1  2  1  0  0  0  0
  1  4  1  0  0  0  0
  1 21  1  6  0  0  0
  2  3  1  0  0  0  0
  3 18  1  0  0  0  0
  4  5  1  0  0  0  0
  5  6  1  0  0  0  0
  5 18  1  1  0  0  0
  5 22  1  0  0  0  0
  6  7  1  0  0  0  0
  7  8  1  0  0  0  0
  8  9  1  6  0  0  0
  8 24  1  0  0  0  0
  9 10  1  0  0  0  0
  9 13  1  6  0  0  0
  9 25  1  0  0  0  0
 10 11  1  0  0  0  0
 12 11  1  0  0  0  0
 12 13  1  0  0  0  0
 13 14  1  1  0  0  0
 15 13  1  6  0  0  0
 15 16  1  0  0  0  0
 15 20  1  0  0  0  0
 16 17  1  0  0  0  0
 17  8  1  1  0  0  0
 17 23  1  0  0  0  0
 18 17  1  6  0  0  0
 18 19  1  0  0  0  0
 20 26  1  0  0  0  0
 21 27  1  0  0  0  0
M  END
$$$$
NCCO
 OpenBabel07182308452D

  7  6  0  0  0  0  0  0  0  0999 V2000
    1.9520   -0.3020    0.0000 C   0  0  0  0  0  0  0  0  0  0  0  0
    1.5395    0.4125    0.0000 C   0  0  0  0  0  0  0  0  0  0  0  0
    1.1270    1.1270    0.0000 N   0  0  0  0  0  0  0  0  0  0  0  0
    2.7770   -0.3020    0.0000 O   0  0  0  0  0  0  0  0  0  0  0  0
    1.6370    2.0103    0.0000 H   0  0  0  0  0  0  0  0  0  0  0  0
    0.1070    1.1270    0.0000 H   0  0  0  0  0  0  0  0  0  0  0  0
    3.2620   -1.1420    0.0000 H   0  0  0  0  0  0  0  0  0  0  0  0
  1  2  1  0  0  0  0
  1  4  1  0  0  0  0
  2  3  1  0  0  0  0
  3  5  1  0  0  0  0
  3  6  1  0  0  0  0
  4  7  1  0  0  0  0
M  END
$$$$
O[C@H]1CC[C@]2(C(=CC=C3[C@@H]2CC[C@]2([C@H]3CCC2)C)C1)C
 OpenBabel07182308452D

 25 28  0  0  0  0  0  0  0  0999 V2000
    4.5466    1.3336    0.0000 C   0  0  0  0  0  0  0  0  0  0  0  0
    2.0307    1.7357    0.0000 C   0  0  0  0  0  0  0  0  0  0  0  0
    4.5754   -0.8489    0.0000 C   0  0  0  0  0  0  0  0  0  0  0  0
    3.7633   -0.7037    0.0000 C   0  0  0  0  0  0  0  0  0  0  0  0
    1.3367    0.1741    0.0000 C   0  0  0  0  0  0  0  0  0  0  0  0
    2.0195   -0.2889    0.0000 C   0  0  0  0  0  0  0  0  0  0  0  0
    6.1708    1.0432    0.0000 C   0  0  0  0  0  0  0  0  0  0  0  0
    3.7345    1.4789    0.0000 C   0  0  0  0  0  0  0  0  0  0  0  0
    5.3587    1.1884    0.0000 C   0  0  0  0  0  0  0  0  0  0  0  0
    2.9224    1.6241    0.0000 C   0  0  0  0  0  0  0  0  0  0  0  0
    5.9193   -0.3634    0.0000 C   0  0  0  0  0  0  0  0  0  0  0  0
    5.1072   -0.2182    0.0000 C   0  0  0  0  0  0  0  0  0  0  0  0
    6.4511    0.2673    0.0000 C   0  0  1  0  0  0  0  0  0  0  0  0
    3.4830    0.0722    0.0000 C   0  0  0  0  0  0  0  0  0  0  0  0
    1.5660    0.9666    0.0000 C   0  0  0  0  0  0  0  0  0  0  0  0
    2.6708    0.2174    0.0000 C   0  0  1  0  0  0  0  0  0  0  0  0
    4.0148    0.7029    0.0000 C   0  0  1  0  0  0  0  0  0  0  0  0
    4.8269    0.5577    0.0000 C   0  0  2  0  0  0  0  0  0  0  0  0
    2.3905    0.9934    0.0000 C   0  0  1  0  0  0  0  0  0  0  0  0
    7.2632    0.1221    0.0000 O   0  0  0  0  0  0  0  0  0  0  0  0
    6.7314   -0.5086    0.0000 H   0  0  0  0  0  0  0  0  0  0  0  0
    0.7557    0.8111    0.0000 H   0  0  0  0  0  0  0  0  0  0  0  0
    2.8685   -0.5835    0.0000 H   0  0  0  0  0  0  0  0  0  0  0  0
    3.2027    0.8481    0.0000 H   0  0  0  0  0  0  0  0  0  0  0  0
    7.5928   -0.7902    0.0000 H   0  0  0  0  0  0  0  0  0  0  0  0
  4  3  1  0  0  0  0
  6  5  1  0  0  0  0
  9  7  1  0  0  0  0
 10  8  1  0  0  0  0
 12  3  2  0  0  0  0
 12 11  1  0  0  0  0
 13  7  1  0  0  0  0
 13 11  1  0  0  0  0
 13 20  1  0  0  0  0
 13 21  1  1  0  0  0
 14  4  2  0  0  0  0
 15  5  1  0  0  0  0
 15 19  1  0  0  0  0
 15 22  1  0  0  0  0
 16  6  1  0  0  0  0
 16 14  1  0  0  0  0
 16 19  1  1  0  0  0
 16 23  1  0  0  0  0
 17  8  1  0  0  0  0
 17 14  1  0  0  0  0
 17 18  1  1  0  0  0
 17 24  1  0  0  0  0
 18  1  1  6  0  0  0
 18  9  1  0  0  0  0
 18 12  1  0  0  0  0
 19  2  1  6  0  0  0
 19 10  1  0  0  0  0
 20 25  1  0  0  0  0
M  END
$$$$
C1Oc2c(O1)cc1c(c2)CC[n+]2c1cc1ccccc1c2
 OpenBabel07182308452D

 21 25  0  0  0  0  0  0  0  0999 V2000
   -0.8249   -3.3125    0.0000 C   0  0  0  0  0  0  0  0  0  0  0  0
   -0.4233   -2.5919    0.0000 C   0  0  0  0  0  0  0  0  0  0  0  0
    0.4016   -2.5793    0.0000 C   0  0  0  0  0  0  0  0  0  0  0  0
    0.8249   -3.2875    0.0000 C   0  0  0  0  0  0  0  0  0  0  0  0
    1.6498   -3.2749    0.0000 C   0  0  0  0  0  0  0  0  0  0  0  0
    2.0731   -3.9830    0.0000 C   0  0  0  0  0  0  0  0  0  0  0  0
    2.8980   -3.9705    0.0000 C   0  0  0  0  0  0  0  0  0  0  0  0
    3.2996   -3.2498    0.0000 C   0  0  0  0  0  0  0  0  0  0  0  0
    4.1245   -3.2373    0.0000 C   0  0  0  0  0  0  0  0  0  0  0  0
    4.5478   -3.9454    0.0000 C   0  0  0  0  0  0  0  0  0  0  0  0
    5.3521   -3.7616    0.0000 O   0  0  0  0  0  0  0  0  0  0  0  0
    5.4259   -2.9399    0.0000 C   0  0  0  0  0  0  0  0  0  0  0  0
    4.6672   -2.6158    0.0000 O   0  0  0  0  0  0  0  0  0  0  0  0
    4.1463   -4.6660    0.0000 C   0  0  0  0  0  0  0  0  0  0  0  0
    3.3213   -4.6786    0.0000 C   0  0  0  0  0  0  0  0  0  0  0  0
    2.9198   -5.3993    0.0000 C   0  0  0  0  0  0  0  0  0  0  0  0
    2.0949   -5.4118    0.0000 C   0  0  0  0  0  0  0  0  0  0  0  0
    1.6715   -4.7037    0.0000 N   0  3  0  0  0  0  0  0  0  0  0  0
    0.8466   -4.7162    0.0000 C   0  0  0  0  0  0  0  0  0  0  0  0
    0.4233   -4.0081    0.0000 C   0  0  0  0  0  0  0  0  0  0  0  0
   -0.4016   -4.0207    0.0000 C   0  0  0  0  0  0  0  0  0  0  0  0
  1  2  2  0  0  0  0
  1 21  1  0  0  0  0
  2  3  1  0  0  0  0
  3  4  2  0  0  0  0
  4  5  1  0  0  0  0
  4 20  1  0  0  0  0
  5  6  2  0  0  0  0
  6  7  1  0  0  0  0
  6 18  1  0  0  0  0
  7  8  2  0  0  0  0
  7 15  1  0  0  0  0
  8  9  1  0  0  0  0
  9 10  2  0  0  0  0
  9 13  1  0  0  0  0
 10 11  1  0  0  0  0
 10 14  1  0  0  0  0
 11 12  1  0  0  0  0
 12 13  1  0  0  0  0
 14 15  2  0  0  0  0
 15 16  1  0  0  0  0
 16 17  1  0  0  0  0
 17 18  1  0  0  0  0
 18 19  2  0  0  0  0
 19 20  1  0  0  0  0
 20 21  2  0  0  0  0
M  CHG  1  18   1
M  END
$$$$
O[C@@H]1[C@@H](O)CO[C@@H]1O
 OpenBabel07182308452D

 11 11  0  0  1  0  0  0  0  0999 V2000
    0.1553   -0.1553    0.0000 C   0  0  0  0  0  0  0  0  0  0  0  0
   -0.0997    0.6294    0.0000 O   0  0  0  0  0  0  0  0  0  0  0  0
    0.5678    1.1143    0.0000 C   0  0  2  0  0  0  0  0  0  0  0  0
    0.0157    1.7274    0.0000 O   0  0  0  0  0  0  0  0  0  0  0  0
    1.2352    0.6294    0.0000 C   0  0  2  0  0  0  0  0  0  0  0  0
    2.0198    0.8843    0.0000 O   0  0  0  0  0  0  0  0  0  0  0  0
    0.9803   -0.1553    0.0000 C   0  0  1  0  0  0  0  0  0  0  0  0
    1.4652   -0.8227    0.0000 O   0  0  0  0  0  0  0  0  0  0  0  0
    0.3154    2.6499    0.0000 H   0  0  0  0  0  0  0  0  0  0  0  0
    2.7406    0.2352    0.0000 H   0  0  0  0  0  0  0  0  0  0  0  0
    1.0707   -1.7088    0.0000 H   0  0  0  0  0  0  0  0  0  0  0  0
  1  2  1  0  0  0  0
  1  7  1  0  0  0  0
  2  3  1  0  0  0  0
  3  4  1  6  0  0  0
  3  5  1  0  0  0  0
  4  9  1  0  0  0  0
  5  6  1  6  0  0  0
  5  7  1  0  0  0  0
  6 10  1  0  0  0  0
  7  8  1  1  0  0  0
  8 11  1  0  0  0  0
M  END
$$$$
C[n+]1c(C)cc(c2c1cccc2)N
 OpenBabel07182308452D

 15 16  0  0  0  0  0  0  0  0999 V2000
   -5.0013    3.7125    0.0000 C   0  0  0  0  0  0  0  0  0  0  0  0
   -5.7158    4.1250    0.0000 C   0  0  0  0  0  0  0  0  0  0  0  0
   -6.4302    3.7125    0.0000 C   0  0  0  0  0  0  0  0  0  0  0  0
   -7.1447    4.1250    0.0000 C   0  0  0  0  0  0  0  0  0  0  0  0
   -7.8592    3.7125    0.0000 N   0  0  0  0  0  0  0  0  0  0  0  0
   -7.1447    4.9500    0.0000 C   0  0  0  0  0  0  0  0  0  0  0  0
   -7.8592    5.3625    0.0000 C   0  0  0  0  0  0  0  0  0  0  0  0
   -7.8592    6.1875    0.0000 C   0  0  0  0  0  0  0  0  0  0  0  0
   -7.1447    6.6000    0.0000 C   0  0  0  0  0  0  0  0  0  0  0  0
   -6.4302    6.1875    0.0000 C   0  0  0  0  0  0  0  0  0  0  0  0
   -6.4302    5.3625    0.0000 C   0  0  0  0  0  0  0  0  0  0  0  0
   -5.7158    4.9500    0.0000 N   0  3  0  0  0  0  0  0  0  0  0  0
   -5.0013    5.3625    0.0000 C   0  0  0  0  0  0  0  0  0  0  0  0
   -8.7118    4.2048    0.0000 H   0  0  0  0  0  0  0  0  0  0  0  0
   -7.8592    2.7280    0.0000 H   0  0  0  0  0  0  0  0  0  0  0  0
  1  2  1  0  0  0  0
  2  3  2  0  0  0  0
  2 12  1  0  0  0  0
  3  4  1  0  0  0  0
  4  5  1  0  0  0  0
  4  6  2  0  0  0  0
  5 14  1  0  0  0  0
  5 15  1  0  0  0  0
  6  7  1  0  0  0  0
  6 11  1  0  0  0  0
  7  8  2  0  0  0  0
  8  9  1  0  0  0  0
  9 10  2  0  0  0  0
 10 11  1  0  0  0  0
 11 12  2  0  0  0  0
 12 13  1  0  0  0  0
M  CHG  1  12   1
M  END
$$$$
NC1=CC(=[NH+]c2c1cccc2)C
 OpenBabel07182308452D

 14 15  0  0  0  0  0  0  0  0999 V2000
    2.1434    5.3625    0.0000 N   0  3  0  0  0  0  0  0  0  0  0  0
    2.8579    4.9500    0.0000 C   0  0  0  0  0  0  0  0  0  0  0  0
    2.8579    4.1250    0.0000 C   0  0  0  0  0  0  0  0  0  0  0  0
    3.5724    5.3625    0.0000 C   0  0  0  0  0  0  0  0  0  0  0  0
    3.5724    6.1875    0.0000 C   0  0  0  0  0  0  0  0  0  0  0  0
    4.2868    6.6000    0.0000 N   0  0  0  0  0  0  0  0  0  0  0  0
    2.8579    6.6000    0.0000 C   0  0  0  0  0  0  0  0  0  0  0  0
    2.1434    6.1875    0.0000 C   0  0  0  0  0  0  0  0  0  0  0  0
    1.4289    6.6000    0.0000 C   0  0  0  0  0  0  0  0  0  0  0  0
    1.4289    7.4250    0.0000 C   0  0  0  0  0  0  0  0  0  0  0  0
    2.1434    7.8375    0.0000 C   0  0  0  0  0  0  0  0  0  0  0  0
    2.8579    7.4250    0.0000 C   0  0  0  0  0  0  0  0  0  0  0  0
    5.1394    6.1078    0.0000 H   0  0  0  0  0  0  0  0  0  0  0  0
    4.2868    7.5845    0.0000 H   0  0  0  0  0  0  0  0  0  0  0  0
  1  2  2  0  0  0  0
  1  8  1  0  0  0  0
  2  3  1  0  0  0  0
  2  4  1  0  0  0  0
  4  5  2  0  0  0  0
  5  6  1  0  0  0  0
  5  7  1  0  0  0  0
  6 13  1  0  0  0  0
  6 14  1  0  0  0  0
  7  8  2  0  0  0  0
  7 12  1  0  0  0  0
  8  9  1  0  0  0  0
  9 10  2  0  0  0  0
 10 11  1  0  0  0  0
 11 12  2  0  0  0  0
M  CHG  1   1   1
M  END
$$$$
O[C@H]1CO[C@H]([C@@H]([C@H]1O)O)O
 OpenBabel07182308452D

 13 13  0  0  1  0  0  0  0  0999 V2000
   -1.6748   -2.0012    0.0000 C   0  0  0  0  0  0  0  0  0  0  0  0
   -0.9603   -1.5887    0.0000 O   0  0  0  0  0  0  0  0  0  0  0  0
   -0.2459   -2.0012    0.0000 C   0  0  2  0  0  0  0  0  0  0  0  0
   -0.2459   -2.8262    0.0000 C   0  0  2  0  0  0  0  0  0  0  0  0
    0.4686   -3.2387    0.0000 O   0  0  0  0  0  0  0  0  0  0  0  0
   -0.9603   -3.2387    0.0000 C   0  0  1  0  0  0  0  0  0  0  0  0
   -0.9603   -4.0637    0.0000 O   0  0  0  0  0  0  0  0  0  0  0  0
   -1.6748   -2.8262    0.0000 C   0  0  1  0  0  0  0  0  0  0  0  0
   -2.3893   -3.2387    0.0000 O   0  0  0  0  0  0  0  0  0  0  0  0
    0.4686   -1.5887    0.0000 O   0  0  0  0  0  0  0  0  0  0  0  0
    0.4686   -4.2087    0.0000 H   0  0  0  0  0  0  0  0  0  0  0  0
   -1.8003   -4.5487    0.0000 H   0  0  0  0  0  0  0  0  0  0  0  0
   -3.2293   -2.7537    0.0000 H   0  0  0  0  0  0  0  0  0  0  0  0
  1  2  1  0  0  0  0
  1  8  1  0  0  0  0
  2  3  1  0  0  0  0
  3 10  1  1  0  0  0
  3  4  1  0  0  0  0
  4  5  1  6  0  0  0
  4  6  1  0  0  0  0
  5 11  1  0  0  0  0
  6  7  1  1  0  0  0
  6  8  1  0  0  0  0
  7 12  1  0  0  0  0
  8  9  1  1  0  0  0
  9 13  1  0  0  0  0
M  END
$$$$
O[C@@H]1[C@@H](O)CCOC1O
 OpenBabel07182308452D

 12 12  0  0  1  0  0  0  0  0999 V2000
    0.4686   -0.7637    0.0000 C   0  0  0  0  0  0  0  0  0  0  0  0
   -0.2459   -0.3512    0.0000 C   0  0  0  0  0  0  0  0  0  0  0  0
   -0.2459    0.4738    0.0000 O   0  0  0  0  0  0  0  0  0  0  0  0
    0.4686    0.8863    0.0000 C   0  0  3  0  0  0  0  0  0  0  0  0
    0.4686    1.7113    0.0000 O   0  0  0  0  0  0  0  0  0  0  0  0
    1.1831    0.4738    0.0000 C   0  0  2  0  0  0  0  0  0  0  0  0
    1.8975    0.8863    0.0000 O   0  0  0  0  0  0  0  0  0  0  0  0
    1.1831   -0.3512    0.0000 C   0  0  1  0  0  0  0  0  0  0  0  0
    1.8975   -0.7637    0.0000 O   0  0  0  0  0  0  0  0  0  0  0  0
    1.3086    2.1963    0.0000 H   0  0  0  0  0  0  0  0  0  0  0  0
    2.7376    0.4013    0.0000 H   0  0  0  0  0  0  0  0  0  0  0  0
    1.8975   -1.7337    0.0000 H   0  0  0  0  0  0  0  0  0  0  0  0
  1  2  1  0  0  0  0
  1  8  1  0  0  0  0
  2  3  1  0  0  0  0
  3  4  1  0  0  0  0
  4  5  1  0  0  0  0
  4  6  1  0  0  0  0
  5 10  1  0  0  0  0
  6  7  1  6  0  0  0
  6  8  1  0  0  0  0
  7 11  1  0  0  0  0
  8  9  1  1  0  0  0
  9 12  1  0  0  0  0
M  END
$$$$
O[C@@H]1COC(=O)[C@@H]([C@H]1O)O
 OpenBabel07182308452D

 13 13  0  0  1  0  0  0  0  0999 V2000
    1.4289    0.8250    0.0000 C   0  0  0  0  0  0  0  0  0  0  0  0
    1.4289    0.0000    0.0000 O   0  0  0  0  0  0  0  0  0  0  0  0
    0.7145   -0.4125    0.0000 C   0  0  0  0  0  0  0  0  0  0  0  0
    0.7145   -1.2375    0.0000 O   0  0  0  0  0  0  0  0  0  0  0  0
    0.0000    0.0000    0.0000 C   0  0  2  0  0  0  0  0  0  0  0  0
   -0.7145   -0.4125    0.0000 O   0  0  0  0  0  0  0  0  0  0  0  0
    0.0000    0.8250    0.0000 C   0  0  1  0  0  0  0  0  0  0  0  0
   -0.7145    1.2375    0.0000 O   0  0  0  0  0  0  0  0  0  0  0  0
    0.7145    1.2375    0.0000 C   0  0  2  0  0  0  0  0  0  0  0  0
    0.7145    2.0625    0.0000 O   0  0  0  0  0  0  0  0  0  0  0  0
   -1.5545    0.0725    0.0000 H   0  0  0  0  0  0  0  0  0  0  0  0
   -0.7145    2.2075    0.0000 H   0  0  0  0  0  0  0  0  0  0  0  0
    1.5545    2.5475    0.0000 H   0  0  0  0  0  0  0  0  0  0  0  0
  1  2  1  0  0  0  0
  1  9  1  0  0  0  0
  2  3  1  0  0  0  0
  3  4  2  0  0  0  0
  3  5  1  0  0  0  0
  5  6  1  6  0  0  0
  5  7  1  0  0  0  0
  6 11  1  0  0  0  0
  7  8  1  1  0  0  0
  7  9  1  0  0  0  0
  8 12  1  0  0  0  0
  9 10  1  6  0  0  0
 10 13  1  0  0  0  0
M  END
$$$$
CC1=CN2[C@H](OC1)[C@@H](C2=O)N
 OpenBabel07182308452D

 13 14  0  0  0  0  0  0  0  0999 V2000
   -0.3570    0.5295    0.0000 C   0  0  2  0  0  0  0  0  0  0  0  0
    0.4688   -0.2963    0.0000 N   0  0  0  0  0  0  0  0  0  0  0  0
   -0.3570   -0.3012    0.0000 C   0  0  0  0  0  0  0  0  0  0  0  0
    0.4688    0.5295    0.0000 C   0  0  2  0  0  0  0  0  0  0  0  0
   -1.0760    0.9472    0.0000 N   0  0  0  0  0  0  0  0  0  0  0  0
    1.1732   -0.7043    0.0000 C   0  0  0  0  0  0  0  0  0  0  0  0
    1.8874   -0.3012    0.0000 C   0  0  0  0  0  0  0  0  0  0  0  0
    1.1830    0.9376    0.0000 O   0  0  0  0  0  0  0  0  0  0  0  0
    1.8922    0.5198    0.0000 C   0  0  0  0  0  0  0  0  0  0  0  0
   -0.9352   -0.8841    0.0000 O   0  0  0  0  0  0  0  0  0  0  0  0
    2.5967   -0.7190    0.0000 C   0  0  0  0  0  0  0  0  0  0  0  0
    0.4591    1.3553    0.0000 H   0  0  0  0  0  0  0  0  0  0  0  0
   -1.0760    1.9317    0.0000 H   0  0  0  0  0  0  0  0  0  0  0  0
  1  4  1  1  0  0  0
  1  5  1  0  0  0  0
  2  3  1  0  0  0  0
  2  4  1  0  0  0  0
  3  1  1  0  0  0  0
  4 12  1  6  0  0  0
  5 13  1  0  0  0  0
  6  2  1  0  0  0  0
  7  6  2  0  0  0  0
  8  4  1  0  0  0  0
  9  8  1  0  0  0  0
  9  7  1  0  0  0  0
 10  3  2  0  0  0  0
 11  7  1  0  0  0  0
M  END
$$$$
Cc1cc2c(o1)c(C)c1c(c2)c(C)cc(=O)o1
 OpenBabel07182308452D

 17 19  0  0  0  0  0  0  0  0999 V2000
    4.0668   -0.1271    0.0000 C   0  0  0  0  0  0  0  0  0  0  0  0
    4.0668    0.6979    0.0000 C   0  0  0  0  0  0  0  0  0  0  0  0
    4.7812    1.1104    0.0000 C   0  0  0  0  0  0  0  0  0  0  0  0
    4.7812    1.9354    0.0000 C   0  0  0  0  0  0  0  0  0  0  0  0
    5.4957    2.3479    0.0000 O   0  0  0  0  0  0  0  0  0  0  0  0
    4.0668    2.3479    0.0000 O   0  0  0  0  0  0  0  0  0  0  0  0
    3.3523    1.9354    0.0000 C   0  0  0  0  0  0  0  0  0  0  0  0
    3.3523    1.1104    0.0000 C   0  0  0  0  0  0  0  0  0  0  0  0
    2.6378    0.6979    0.0000 C   0  0  0  0  0  0  0  0  0  0  0  0
    1.9233    1.1104    0.0000 C   0  0  0  0  0  0  0  0  0  0  0  0
    1.1387    0.8555    0.0000 C   0  0  0  0  0  0  0  0  0  0  0  0
    0.6538    1.5229    0.0000 C   0  0  0  0  0  0  0  0  0  0  0  0
    1.1387    2.1904    0.0000 O   0  0  0  0  0  0  0  0  0  0  0  0
    1.9233    1.9354    0.0000 C   0  0  0  0  0  0  0  0  0  0  0  0
    2.6378    2.3479    0.0000 C   0  0  0  0  0  0  0  0  0  0  0  0
    2.6378    3.1729    0.0000 C   0  0  0  0  0  0  0  0  0  0  0  0
   -0.1712    1.5229    0.0000 C   0  0  0  0  0  0  0  0  0  0  0  0
  1  2  1  0  0  0  0
  2  3  2  0  0  0  0
  2  8  1  0  0  0  0
  3  4  1  0  0  0  0
  4  5  2  0  0  0  0
  4  6  1  0  0  0  0
  6  7  1  0  0  0  0
  7  8  2  0  0  0  0
  7 15  1  0  0  0  0
  8  9  1  0  0  0  0
  9 10  2  0  0  0  0
 10 11  1  0  0  0  0
 10 14  1  0  0  0  0
 11 12  2  0  0  0  0
 12 13  1  0  0  0  0
 12 17  1  0  0  0  0
 13 14  1  0  0  0  0
 14 15  2  0  0  0  0
 15 16  1  0  0  0  0
M  END
$$$$
S=PN1CC1
 OpenBabel07182308452D

  5  5  0  0  0  0  0  0  0  0999 V2000
    0.7145    3.0151    0.0000 S   0  0  0  0  0  0  0  0  0  0  0  0
    1.5395    3.0151    0.0000 P   0  0  0  0  0  0  0  0  0  0  0  0
    2.3645    3.0151    0.0000 N   0  0  0  0  0  0  0  0  0  0  0  0
    3.0789    3.4276    0.0000 C   0  0  0  0  0  0  0  0  0  0  0  0
    3.0789    2.6026    0.0000 C   0  0  0  0  0  0  0  0  0  0  0  0
  1  2  2  0  0  0  0
  2  3  1  0  0  0  0
  3  4  1  0  0  0  0
  3  5  1  0  0  0  0
  4  5  1  0  0  0  0
M  END
$$$$
N1CC1
 OpenBabel07182308452D

  3  3  0  0  0  0  0  0  0  0999 V2000
    1.5395    2.1901    0.0000 N   0  0  0  0  0  0  0  0  0  0  0  0
    1.9520    1.4757    0.0000 C   0  0  0  0  0  0  0  0  0  0  0  0
    1.1270    1.4757    0.0000 C   0  0  0  0  0  0  0  0  0  0  0  0
  1  2  1  0  0  0  0
  1  3  1  0  0  0  0
  2  3  1  0  0  0  0
M  END
$$$$
Oc1ccc2c(c1)CC[C@@H]1[C@@H]2CC[C@]2([C@H]1C[C@H]([C@@H]2O)O)C
 OpenBabel07182308452D

 27 30  0  0  1  0  0  0  0  0999 V2000
    7.5775    1.7429    0.0000 O   0  0  0  0  0  0  0  0  0  0  0  0
    8.6275    0.2949    0.0000 O   0  0  0  0  0  0  0  0  0  0  0  0
    2.0917   -1.8105    0.0000 O   0  0  0  0  0  0  0  0  0  0  0  0
    6.5406    0.7074    0.0000 C   0  0  1  0  0  0  0  0  0  0  0  0
    6.5406   -0.1176    0.0000 C   0  0  2  0  0  0  0  0  0  0  0  0
    5.8262   -0.5300    0.0000 C   0  0  1  0  0  0  0  0  0  0  0  0
    5.1119   -0.1176    0.0000 C   0  0  2  0  0  0  0  0  0  0  0  0
    7.3211    0.9588    0.0000 C   0  0  2  0  0  0  0  0  0  0  0  0
    5.8262    1.1199    0.0000 C   0  0  0  0  0  0  0  0  0  0  0  0
    7.3211   -0.3689    0.0000 C   0  0  0  0  0  0  0  0  0  0  0  0
    7.8026    0.2949    0.0000 C   0  0  1  0  0  0  0  0  0  0  0  0
    5.1119    0.7074    0.0000 C   0  0  0  0  0  0  0  0  0  0  0  0
    5.8395   -1.3891    0.0000 C   0  0  0  0  0  0  0  0  0  0  0  0
    6.5406    1.5323    0.0000 C   0  0  0  0  0  0  0  0  0  0  0  0
    4.3612   -0.5356    0.0000 C   0  0  0  0  0  0  0  0  0  0  0  0
    5.0987   -1.8245    0.0000 C   0  0  0  0  0  0  0  0  0  0  0  0
    4.3545   -1.3948    0.0000 C   0  0  0  0  0  0  0  0  0  0  0  0
    3.5966   -0.0703    0.0000 C   0  0  0  0  0  0  0  0  0  0  0  0
    3.5829   -1.8483    0.0000 C   0  0  0  0  0  0  0  0  0  0  0  0
    2.8147   -0.5058    0.0000 C   0  0  0  0  0  0  0  0  0  0  0  0
    2.8078   -1.4008    0.0000 C   0  0  0  0  0  0  0  0  0  0  0  0
    6.6105   -0.7738    0.0000 H   0  0  0  0  0  0  0  0  0  0  0  0
    6.4003   -0.8555    0.0000 H   0  0  0  0  0  0  0  0  0  0  0  0
    5.6833    0.2124    0.0000 H   0  0  0  0  0  0  0  0  0  0  0  0
    8.5267    1.9428    0.0000 H   0  0  0  0  0  0  0  0  0  0  0  0
    9.1125   -0.5451    0.0000 H   0  0  0  0  0  0  0  0  0  0  0  0
    1.2821   -1.3388    0.0000 H   0  0  0  0  0  0  0  0  0  0  0  0
  1 25  1  0  0  0  0
  2 26  1  0  0  0  0
  3 21  1  0  0  0  0
  3 27  1  0  0  0  0
  4  5  1  1  0  0  0
  4  9  1  0  0  0  0
  4 14  1  0  0  0  0
  5  6  1  1  0  0  0
  5 10  1  0  0  0  0
  5 22  1  0  0  0  0
  6  7  1  1  0  0  0
  6 13  1  0  0  0  0
  6 23  1  0  0  0  0
  7 12  1  0  0  0  0
  7 15  1  0  0  0  0
  7 24  1  6  0  0  0
  8  1  1  0  0  0  0
  8  4  1  1  0  0  0
  8 11  1  0  0  0  0
  9 12  1  0  0  0  0
 10 11  1  0  0  0  0
 11  2  1  6  0  0  0
 13 16  1  0  0  0  0
 15 17  2  0  0  0  0
 15 18  1  0  0  0  0
 16 17  1  0  0  0  0
 17 19  1  0  0  0  0
 18 20  2  0  0  0  0
 19 21  2  0  0  0  0
 20 21  1  0  0  0  0
M  END
$$$$
O=C1CC[C@@H]2[C@]1(C)CC[C@H]1[C@H]2CCc2c1cccc2
 OpenBabel07182308452D

 22 25  0  0  0  0  0  0  0  0999 V2000
    2.9986   -0.2111    0.0000 C   0  0  0  0  0  0  0  0  0  0  0  0
    1.4995   -1.1938    0.0000 C   0  0  0  0  0  0  0  0  0  0  0  0
    2.9986    1.1237    0.0000 C   0  0  0  0  0  0  0  0  0  0  0  0
    1.4995    1.2812    0.0000 C   0  0  0  0  0  0  0  0  0  0  0  0
    3.4835    0.4561    0.0000 C   0  0  0  0  0  0  0  0  0  0  0  0
    0.0705   -0.3687    0.0000 C   0  0  0  0  0  0  0  0  0  0  0  0
    0.7850    0.8687    0.0000 C   0  0  0  0  0  0  0  0  0  0  0  0
    0.7850   -1.6062    0.0000 C   0  0  0  0  0  0  0  0  0  0  0  0
    3.2535    1.9083    0.0000 O   0  0  0  0  0  0  0  0  0  0  0  0
    0.0705   -1.1938    0.0000 C   0  0  0  0  0  0  0  0  0  0  0  0
   -0.6439    0.0437    0.0000 C   0  0  0  0  0  0  0  0  0  0  0  0
   -0.6439   -1.6062    0.0000 C   0  0  0  0  0  0  0  0  0  0  0  0
   -1.3583   -0.3687    0.0000 C   0  0  0  0  0  0  0  0  0  0  0  0
    1.4995   -0.3687    0.0000 C   0  0  2  0  0  0  0  0  0  0  0  0
    1.4995    0.4561    0.0000 H   0  0  0  0  0  0  0  0  0  0  0  0
    0.7850    0.0437    0.0000 C   0  0  1  0  0  0  0  0  0  0  0  0
    0.7850   -0.7813    0.0000 H   0  0  0  0  0  0  0  0  0  0  0  0
    2.2139    0.8687    0.0000 C   0  0  2  0  0  0  0  0  0  0  0  0
    2.2139    1.6937    0.0000 C   0  0  0  0  0  0  0  0  0  0  0  0
    2.2139    0.0437    0.0000 C   0  0  1  0  0  0  0  0  0  0  0  0
    2.2139   -0.7813    0.0000 H   0  0  0  0  0  0  0  0  0  0  0  0
   -1.3583   -1.1938    0.0000 C   0  0  0  0  0  0  0  0  0  0  0  0
  2  8  1  0  0  0  0
  3  9  2  0  0  0  0
  3  5  1  0  0  0  0
  4  7  1  0  0  0  0
  5  1  1  0  0  0  0
  6 10  2  0  0  0  0
  6 11  1  0  0  0  0
  8 10  1  0  0  0  0
 10 12  1  0  0  0  0
 11 13  2  0  0  0  0
 12 22  2  0  0  0  0
 13 22  1  0  0  0  0
 14 20  1  6  0  0  0
 14  2  1  0  0  0  0
 14 15  1  0  0  0  0
 16 14  1  1  0  0  0
 16  6  1  0  0  0  0
 16  7  1  0  0  0  0
 16 17  1  0  0  0  0
 18 20  1  1  0  0  0
 18  3  1  0  0  0  0
 18  4  1  0  0  0  0
 18 19  1  0  0  0  0
 20  1  1  0  0  0  0
 20 21  1  6  0  0  0
M  END
$$$$
CC1=CSCCO1
 OpenBabel07182308452D

  7  7  0  0  0  0  0  0  0  0999 V2000
    1.4289   -1.6500    0.0000 C   0  0  0  0  0  0  0  0  0  0  0  0
    1.4289   -2.4750    0.0000 C   0  0  0  0  0  0  0  0  0  0  0  0
    2.1434   -2.8875    0.0000 C   0  0  0  0  0  0  0  0  0  0  0  0
    2.1434   -3.7125    0.0000 S   0  0  0  0  0  0  0  0  0  0  0  0
    1.4289   -4.1250    0.0000 C   0  0  0  0  0  0  0  0  0  0  0  0
    0.7145   -3.7125    0.0000 C   0  0  0  0  0  0  0  0  0  0  0  0
    0.7145   -2.8875    0.0000 O   0  0  0  0  0  0  0  0  0  0  0  0
  1  2  1  0  0  0  0
  2  3  2  0  0  0  0
  2  7  1  0  0  0  0
  3  4  1  0  0  0  0
  4  5  1  0  0  0  0
  5  6  1  0  0  0  0
  6  7  1  0  0  0  0
M  END
$$$$
Oc1cc2OCCC(=O)c2c(c1)O
 OpenBabel07182308452D

 14 15  0  0  0  0  0  0  0  0999 V2000
    1.0725    0.9880    0.0000 O   0  0  0  0  0  0  0  0  0  0  0  0
    1.7860    0.5756    0.0000 C   0  0  0  0  0  0  0  0  0  0  0  0
    1.7860   -0.2494    0.0000 C   0  0  0  0  0  0  0  0  0  0  0  0
    1.0725   -0.6618    0.0000 C   0  0  0  0  0  0  0  0  0  0  0  0
    0.3575   -0.2494    0.0000 C   0  0  0  0  0  0  0  0  0  0  0  0
    0.3575    0.5756    0.0000 C   0  0  0  0  0  0  0  0  0  0  0  0
   -0.3575    0.9880    0.0000 C   0  0  0  0  0  0  0  0  0  0  0  0
   -1.0710    0.5756    0.0000 C   0  0  0  0  0  0  0  0  0  0  0  0
   -1.0710   -0.2494    0.0000 C   0  0  0  0  0  0  0  0  0  0  0  0
   -0.3575   -0.6618    0.0000 C   0  0  0  0  0  0  0  0  0  0  0  0
   -0.3575   -1.4868    0.0000 O   0  0  0  0  0  0  0  0  0  0  0  0
    1.0725   -1.4868    0.0000 O   0  0  0  0  0  0  0  0  0  0  0  0
   -1.7859    0.9880    0.0000 O   0  0  0  0  0  0  0  0  0  0  0  0
   -1.1690   -1.9553    0.0000 H   0  0  0  0  0  0  0  0  0  0  0  0
  1  2  1  0  0  0  0
  1  6  1  0  0  0  0
  2  3  1  0  0  0  0
  3  4  1  0  0  0  0
  4  5  1  0  0  0  0
  4 12  2  0  0  0  0
  5  6  2  0  0  0  0
  5 10  1  0  0  0  0
  6  7  1  0  0  0  0
  7  8  2  0  0  0  0
  8  9  1  0  0  0  0
  8 13  1  0  0  0  0
  9 10  2  0  0  0  0
 10 11  1  0  0  0  0
 11 14  1  0  0  0  0
M  END
$$$$
c1ccc2c(c1)ocn2
 OpenBabel07182308452D

  9 10  0  0  1  0  0  0  0  0999 V2000
    6.4461   -1.0764    0.0000 O   0  0  0  0  0  0  0  0  0  0  0  0
    6.4461    0.2514    0.0000 N   0  0  0  0  0  0  0  0  0  0  0  0
    4.2365    0.0000    0.0000 C   0  0  0  0  0  0  0  0  0  0  0  0
    5.6655    0.0000    0.0000 C   0  0  0  0  0  0  0  0  0  0  0  0
    4.9509    0.4125    0.0000 C   0  0  0  0  0  0  0  0  0  0  0  0
    5.6655   -0.8250    0.0000 C   0  0  0  0  0  0  0  0  0  0  0  0
    4.2365   -0.8250    0.0000 C   0  0  0  0  0  0  0  0  0  0  0  0
    4.9509   -1.2375    0.0000 C   0  0  0  0  0  0  0  0  0  0  0  0
    6.9276   -0.4125    0.0000 C   0  0  0  0  0  0  0  0  0  0  0  0
  1  6  1  0  0  0  0
  1  9  1  0  0  0  0
  2  4  1  0  0  0  0
  2  9  2  0  0  0  0
  3  5  2  0  0  0  0
  3  7  1  0  0  0  0
  4  5  1  0  0  0  0
  4  6  2  0  0  0  0
  6  8  1  0  0  0  0
  7  8  2  0  0  0  0
M  END
$$$$
Clc1cc(S)c(c(c1)Cl)O
 OpenBabel07182308452D

 11 11  0  0  0  0  0  0  0  0999 V2000
    4.9509    2.4751    0.0000 Cl  0  0  0  0  0  0  0  0  0  0  0  0
    6.3799    0.0000    0.0000 Cl  0  0  0  0  0  0  0  0  0  0  0  0
    3.5220    0.0000    0.0000 S   0  0  0  0  0  0  0  0  0  0  0  0
    3.5220    1.6500    0.0000 O   0  0  0  0  0  0  0  0  0  0  0  0
    4.2365    0.4125    0.0000 C   0  0  0  0  0  0  0  0  0  0  0  0
    4.2365    1.2375    0.0000 C   0  0  0  0  0  0  0  0  0  0  0  0
    4.9509    0.0000    0.0000 C   0  0  0  0  0  0  0  0  0  0  0  0
    4.9509    1.6500    0.0000 C   0  0  0  0  0  0  0  0  0  0  0  0
    5.6655    0.4125    0.0000 C   0  0  0  0  0  0  0  0  0  0  0  0
    5.6655    1.2375    0.0000 C   0  0  0  0  0  0  0  0  0  0  0  0
    3.5220    2.5870    0.0000 H   0  0  0  0  0  0  0  0  0  0  0  0
  1  8  1  0  0  0  0
  2  9  1  0  0  0  0
  3  5  1  0  0  0  0
  4  6  1  0  0  0  0
  4 11  1  0  0  0  0
  5  6  2  0  0  0  0
  5  7  1  0  0  0  0
  6  8  1  0  0  0  0
  7  9  2  0  0  0  0
  8 10  2  0  0  0  0
  9 10  1  0  0  0  0
M  END
$$$$
Clc1ccc(c(c1)Cl)O
 OpenBabel07182308452D

 10 10  0  0  0  0  0  0  0  0999 V2000
    2.0930   -2.4751    0.0000 Cl  0  0  0  0  0  0  0  0  0  0  0  0
    4.9509   -2.4751    0.0000 Cl  0  0  0  0  0  0  0  0  0  0  0  0
    2.0930   -0.8250    0.0000 O   0  0  0  0  0  0  0  0  0  0  0  0
    3.5220   -0.8250    0.0000 C   0  0  0  0  0  0  0  0  0  0  0  0
    2.8075   -1.2375    0.0000 C   0  0  0  0  0  0  0  0  0  0  0  0
    4.2365   -1.2375    0.0000 C   0  0  0  0  0  0  0  0  0  0  0  0
    2.8075   -2.0625    0.0000 C   0  0  0  0  0  0  0  0  0  0  0  0
    4.2365   -2.0625    0.0000 C   0  0  0  0  0  0  0  0  0  0  0  0
    3.5220   -2.4751    0.0000 C   0  0  0  0  0  0  0  0  0  0  0  0
    2.0930    0.1120    0.0000 H   0  0  0  0  0  0  0  0  0  0  0  0
  1  7  1  0  0  0  0
  2  8  1  0  0  0  0
  3  5  1  0  0  0  0
  3 10  1  0  0  0  0
  4  5  2  0  0  0  0
  4  6  1  0  0  0  0
  5  7  1  0  0  0  0
  6  8  2  0  0  0  0
  7  9  2  0  0  0  0
  8  9  1  0  0  0  0
M  END
$$$$
Ic1cc(Cl)c2c(c1O)nccc2
 OpenBabel07182308452D

 14 15  0  0  0  0  0  0  0  0999 V2000
    1.6498   -0.6970    0.0000 I   0  0  0  0  0  0  0  0  0  0  0  0
    3.0786    1.7777    0.0000 Cl  0  0  0  0  0  0  0  0  0  0  0  0
    3.0786   -1.5219    0.0000 O   0  0  0  0  0  0  0  0  0  0  0  0
    4.5303   -0.7257    0.0000 N   0  0  0  0  0  0  0  0  0  0  0  0
    3.7929    0.5403    0.0000 C   0  0  0  0  0  0  0  0  0  0  0  0
    3.7929   -0.2846    0.0000 C   0  0  0  0  0  0  0  0  0  0  0  0
    3.0786   -0.6970    0.0000 C   0  0  0  0  0  0  0  0  0  0  0  0
    3.0786    0.9528    0.0000 C   0  0  0  0  0  0  0  0  0  0  0  0
    4.5303    0.9814    0.0000 C   0  0  0  0  0  0  0  0  0  0  0  0
    2.3641   -0.2846    0.0000 C   0  0  0  0  0  0  0  0  0  0  0  0
    2.3641    0.5403    0.0000 C   0  0  0  0  0  0  0  0  0  0  0  0
    5.2777    0.5574    0.0000 C   0  0  0  0  0  0  0  0  0  0  0  0
    5.2777   -0.3018    0.0000 C   0  0  0  0  0  0  0  0  0  0  0  0
    2.2671   -1.9904    0.0000 H   0  0  0  0  0  0  0  0  0  0  0  0
  1 10  1  0  0  0  0
  2  8  1  0  0  0  0
  3  7  1  0  0  0  0
  3 14  1  0  0  0  0
  4  6  1  0  0  0  0
  4 13  2  0  0  0  0
  5  6  2  0  0  0  0
  5  8  1  0  0  0  0
  5  9  1  0  0  0  0
  6  7  1  0  0  0  0
  7 10  2  0  0  0  0
  8 11  2  0  0  0  0
  9 12  2  0  0  0  0
 10 11  1  0  0  0  0
 12 13  1  0  0  0  0
M  END
$$$$
Oc1cccc2c1C(=O)c1c(C2=O)cccc1O
 OpenBabel07182308452D

 20 22  0  0  0  0  0  0  0  0999 V2000
    3.6957    1.4452    0.0000 O   0  0  0  0  0  0  0  0  0  0  0  0
    3.6957   -1.7230    0.0000 O   0  0  0  0  0  0  0  0  0  0  0  0
    5.0805    1.4726    0.0000 O   0  0  0  0  0  0  0  0  0  0  0  0
    2.3109    1.4726    0.0000 O   0  0  0  0  0  0  0  0  0  0  0  0
    4.3817    0.2571    0.0000 C   0  0  0  0  0  0  0  0  0  0  0  0
    3.0098    0.2571    0.0000 C   0  0  0  0  0  0  0  0  0  0  0  0
    4.3817   -0.5350    0.0000 C   0  0  0  0  0  0  0  0  0  0  0  0
    3.0098   -0.5350    0.0000 C   0  0  0  0  0  0  0  0  0  0  0  0
    3.6957    0.6531    0.0000 C   0  0  0  0  0  0  0  0  0  0  0  0
    3.6957   -0.9310    0.0000 C   0  0  0  0  0  0  0  0  0  0  0  0
    5.0897    0.6806    0.0000 C   0  0  0  0  0  0  0  0  0  0  0  0
    2.3018    0.6806    0.0000 C   0  0  0  0  0  0  0  0  0  0  0  0
    5.0897   -0.9585    0.0000 C   0  0  0  0  0  0  0  0  0  0  0  0
    2.3018   -0.9585    0.0000 C   0  0  0  0  0  0  0  0  0  0  0  0
    5.8074    0.2736    0.0000 C   0  0  0  0  0  0  0  0  0  0  0  0
    1.5841    0.2736    0.0000 C   0  0  0  0  0  0  0  0  0  0  0  0
    5.8074   -0.5514    0.0000 C   0  0  0  0  0  0  0  0  0  0  0  0
    1.5841   -0.5514    0.0000 C   0  0  0  0  0  0  0  0  0  0  0  0
    5.8865    1.9505    0.0000 H   0  0  0  0  0  0  0  0  0  0  0  0
    3.1277    1.9317    0.0000 H   0  0  0  0  0  0  0  0  0  0  0  0
  1  9  2  0  0  0  0
  2 10  2  0  0  0  0
  3 11  1  0  0  0  0
  3 19  1  0  0  0  0
  4 12  1  0  0  0  0
  4 20  1  0  0  0  0
  5  7  2  0  0  0  0
  5  9  1  0  0  0  0
  5 11  1  0  0  0  0
  6  8  2  0  0  0  0
  6  9  1  0  0  0  0
  6 12  1  0  0  0  0
  7 10  1  0  0  0  0
  7 13  1  0  0  0  0
  8 10  1  0  0  0  0
  8 14  1  0  0  0  0
 11 15  2  0  0  0  0
 12 16  2  0  0  0  0
 13 17  2  0  0  0  0
 14 18  2  0  0  0  0
 15 17  1  0  0  0  0
 16 18  1  0  0  0  0
M  END
$$$$
CN1CCc2c(C1)c(N)ccc2
 OpenBabel07182308452D

 14 15  0  0  1  0  0  0  0  0999 V2000
    2.3645    1.0928    0.0000 N   0  0  0  0  0  0  0  0  0  0  0  0
    4.5214    2.3588    0.0000 N   0  0  0  0  0  0  0  0  0  0  0  0
    3.0790   -0.1447    0.0000 C   0  0  0  0  0  0  0  0  0  0  0  0
    2.3645    0.2678    0.0000 C   0  0  0  0  0  0  0  0  0  0  0  0
    3.7934    0.2678    0.0000 C   0  0  0  0  0  0  0  0  0  0  0  0
    3.0790    1.5053    0.0000 C   0  0  0  0  0  0  0  0  0  0  0  0
    3.7934    1.0928    0.0000 C   0  0  0  0  0  0  0  0  0  0  0  0
    4.5309    1.5339    0.0000 C   0  0  0  0  0  0  0  0  0  0  0  0
    4.5309   -0.1733    0.0000 C   0  0  0  0  0  0  0  0  0  0  0  0
    1.6500    1.5053    0.0000 C   0  0  0  0  0  0  0  0  0  0  0  0
    5.2784    1.1100    0.0000 C   0  0  0  0  0  0  0  0  0  0  0  0
    5.2784    0.2506    0.0000 C   0  0  0  0  0  0  0  0  0  0  0  0
    5.3683    2.8608    0.0000 H   0  0  0  0  0  0  0  0  0  0  0  0
    3.6632    2.8412    0.0000 H   0  0  0  0  0  0  0  0  0  0  0  0
  1  4  1  0  0  0  0
  1  6  1  0  0  0  0
  1 10  1  0  0  0  0
  2  8  1  0  0  0  0
  2 13  1  0  0  0  0
  2 14  1  0  0  0  0
  3  4  1  0  0  0  0
  3  5  1  0  0  0  0
  5  7  2  0  0  0  0
  5  9  1  0  0  0  0
  6  7  1  0  0  0  0
  7  8  1  0  0  0  0
  8 11  2  0  0  0  0
  9 12  2  0  0  0  0
 11 12  1  0  0  0  0
M  END
$$$$
O=C1OCc2c1cccc2
 OpenBabel07182308452D

 10 11  0  0  0  0  0  0  0  0999 V2000
    4.3411   -1.2316    0.0000 O   0  0  0  0  0  0  0  0  0  0  0  0
    4.1159   -2.6797    0.0000 O   0  0  0  0  0  0  0  0  0  0  0  0
    3.8596   -0.5678    0.0000 C   0  0  0  0  0  0  0  0  0  0  0  0
    3.0790   -0.8191    0.0000 C   0  0  0  0  0  0  0  0  0  0  0  0
    3.0790   -1.6441    0.0000 C   0  0  0  0  0  0  0  0  0  0  0  0
    3.8596   -1.8955    0.0000 C   0  0  0  0  0  0  0  0  0  0  0  0
    2.3645   -0.4066    0.0000 C   0  0  0  0  0  0  0  0  0  0  0  0
    2.3645   -2.0566    0.0000 C   0  0  0  0  0  0  0  0  0  0  0  0
    1.6500   -0.8191    0.0000 C   0  0  0  0  0  0  0  0  0  0  0  0
    1.6500   -1.6441    0.0000 C   0  0  0  0  0  0  0  0  0  0  0  0
  1  3  1  0  0  0  0
  1  6  1  0  0  0  0
  2  6  2  0  0  0  0
  3  4  1  0  0  0  0
  4  5  1  0  0  0  0
  4  7  2  0  0  0  0
  5  6  1  0  0  0  0
  5  8  2  0  0  0  0
  7  9  1  0  0  0  0
  8 10  1  0  0  0  0
  9 10  2  0  0  0  0
M  END
$$$$
C1CCC[NH2+]C1
 OpenBabel07182308452D

  6  6  0  0  0  0  0  0  0  0999 V2000
    3.1944    0.2575    0.0000 N   0  3  0  0  0  0  0  0  0  0  0  0
    3.1944    1.0833    0.0000 C   0  0  0  0  0  0  0  0  0  0  0  0
    3.9036   -0.1554    0.0000 C   0  0  0  0  0  0  0  0  0  0  0  0
    4.6178    0.2575    0.0000 C   0  0  0  0  0  0  0  0  0  0  0  0
    3.9036    1.4963    0.0000 C   0  0  0  0  0  0  0  0  0  0  0  0
    4.6178    1.0833    0.0000 C   0  0  0  0  0  0  0  0  0  0  0  0
  2  1  1  0  0  0  0
  3  1  1  0  0  0  0
  4  3  1  0  0  0  0
  5  2  1  0  0  0  0
  6  5  1  0  0  0  0
  6  4  1  0  0  0  0
M  CHG  1   1   1
M  END
$$$$
C1C[C@@H]2CC[C@H](C1)N2
 OpenBabel07182308452D

  8  9  0  0  0  0  0  0  0  0999 V2000
    0.4468   -0.7087    0.0000 N   0  0  0  0  0  0  0  0  0  0  0  0
    1.8759   -0.7087    0.0000 C   0  0  0  0  0  0  0  0  0  0  0  0
    1.8759   -1.5337    0.0000 C   0  0  0  0  0  0  0  0  0  0  0  0
    1.1613   -0.2961    0.0000 C   0  0  1  0  0  0  0  0  0  0  0  0
    1.1613   -1.9462    0.0000 C   0  0  0  0  0  0  0  0  0  0  0  0
    0.4468   -1.5337    0.0000 C   0  0  2  0  0  0  0  0  0  0  0  0
    1.4711   -0.9365    0.0000 C   0  0  0  0  0  0  0  0  0  0  0  0
    1.1700   -1.5350    0.0000 C   0  0  0  0  0  0  0  0  0  0  0  0
  1  4  1  0  0  0  0
  3  2  1  0  0  0  0
  4  2  1  1  0  0  0
  4  7  1  0  0  0  0
  5  3  1  0  0  0  0
  6  5  1  1  0  0  0
  6  1  1  0  0  0  0
  6  8  1  0  0  0  0
  7  8  1  0  0  0  0
M  END
$$$$
FC1(F)CCCCC1
 OpenBabel07182308452D

  8  8  0  0  0  0  0  0  0  0999 V2000
   -1.0379    1.7661    0.0000 C   0  0  0  0  0  0  0  0  0  0  0  0
   -0.3320    2.1736    0.0000 C   0  0  0  0  0  0  0  0  0  0  0  0
   -0.3320    2.9985    0.0000 C   0  0  0  0  0  0  0  0  0  0  0  0
   -1.0465    3.4112    0.0000 C   0  0  0  0  0  0  0  0  0  0  0  0
   -1.7521    3.0039    0.0000 C   0  0  0  0  0  0  0  0  0  0  0  0
   -1.7523    2.1789    0.0000 C   0  0  0  0  0  0  0  0  0  0  0  0
   -1.4588    4.1257    0.0000 F   0  0  0  0  0  0  0  0  0  0  0  0
   -0.6338    4.1256    0.0000 F   0  0  0  0  0  0  0  0  0  0  0  0
  1  2  1  0  0  0  0
  1  6  1  0  0  0  0
  2  3  1  0  0  0  0
  3  4  1  0  0  0  0
  4  5  1  0  0  0  0
  5  6  1  0  0  0  0
  7  4  1  0  0  0  0
  8  4  1  0  0  0  0
M  END
$$$$
Cc1nnc[nH]1
 OpenBabel07182308452D

  6  6  0  0  0  0  0  0  0  0999 V2000
    2.5903   -1.9462    0.0000 N   0  0  0  0  0  0  0  0  0  0  0  0
    3.3440   -1.6106    0.0000 C   0  0  0  0  0  0  0  0  0  0  0  0
    2.6766   -2.7666    0.0000 C   0  0  0  0  0  0  0  0  0  0  0  0
    3.8961   -2.2237    0.0000 N   0  0  0  0  0  0  0  0  0  0  0  0
    3.4837   -2.9382    0.0000 N   0  0  0  0  0  0  0  0  0  0  0  0
    3.5156   -0.8036    0.0000 C   0  0  0  0  0  0  0  0  0  0  0  0
  2  1  1  0  0  0  0
  2  6  1  0  0  0  0
  3  1  1  0  0  0  0
  4  2  2  0  0  0  0
  5  3  2  0  0  0  0
  5  4  1  0  0  0  0
M  END
$$$$
CC1CC(O)CC(C1)(C)C
 OpenBabel07182308452D

 10 10  0  0  1  0  0  0  0  0999 V2000
    3.5220    0.6740    0.0000 O   0  0  0  0  0  0  0  0  0  0  0  0
    4.9509    2.3241    0.0000 C   0  0  0  0  0  0  0  0  0  0  0  0
    5.6655    1.9116    0.0000 C   0  0  0  0  0  0  0  0  0  0  0  0
    5.6655    1.0865    0.0000 C   0  0  3  0  0  0  0  0  0  0  0  0
    4.2365    1.9116    0.0000 C   0  0  0  0  0  0  0  0  0  0  0  0
    4.2365    1.0865    0.0000 C   0  0  3  0  0  0  0  0  0  0  0  0
    4.9509    0.6740    0.0000 C   0  0  0  0  0  0  0  0  0  0  0  0
    5.3634    3.0385    0.0000 C   0  0  0  0  0  0  0  0  0  0  0  0
    4.5384    3.0385    0.0000 C   0  0  0  0  0  0  0  0  0  0  0  0
    6.3799    0.6740    0.0000 C   0  0  0  0  0  0  0  0  0  0  0  0
  1  6  1  0  0  0  0
  2  3  1  0  0  0  0
  2  5  1  0  0  0  0
  2  8  1  0  0  0  0
  2  9  1  0  0  0  0
  3  4  1  0  0  0  0
  4  7  1  0  0  0  0
  4 10  1  0  0  0  0
  5  6  1  0  0  0  0
  6  7  1  0  0  0  0
M  END
$$$$
O=C1C=C2C(=C[C@@H]3[C@@H]([C@]2([C@@H]2[C@H]1C2)C)CC[C@]1([C@H]3CC[C@H]1O)C)Cl
 OpenBabel07182308452D

 28 32  0  0  0  0  0  0  0  0999 V2000
   -2.1371    0.0787    0.0000 C   0  0  1  0  0  0  0  0  0  0  0  0
   -2.8516   -0.3337    0.0000 C   0  0  2  0  0  0  0  0  0  0  0  0
   -2.8516   -1.1587    0.0000 C   0  0  0  0  0  0  0  0  0  0  0  0
   -2.1371   -1.5712    0.0000 C   0  0  0  0  0  0  0  0  0  0  0  0
   -1.4227   -1.1587    0.0000 C   0  0  0  0  0  0  0  0  0  0  0  0
   -1.4227   -0.3337    0.0000 C   0  0  1  0  0  0  0  0  0  0  0  0
   -0.7083    0.0787    0.0000 C   0  0  2  0  0  0  0  0  0  0  0  0
   -0.7083   -1.5712    0.0000 C   0  0  0  0  0  0  0  0  0  0  0  0
    0.0062   -1.1587    0.0000 C   0  0  0  0  0  0  0  0  0  0  0  0
    0.0062   -0.3337    0.0000 C   0  0  1  0  0  0  0  0  0  0  0  0
    0.0062    1.3162    0.0000 C   0  0  0  0  0  0  0  0  0  0  0  0
   -0.7083    0.9037    0.0000 C   0  0  0  0  0  0  0  0  0  0  0  0
    0.7206    0.0787    0.0000 C   0  0  1  0  0  0  0  0  0  0  0  0
    0.7206    0.9037    0.0000 C   0  0  1  0  0  0  0  0  0  0  0  0
    1.5052    1.1587    0.0000 C   0  0  1  0  0  0  0  0  0  0  0  0
    1.5052   -0.1761    0.0000 C   0  0  0  0  0  0  0  0  0  0  0  0
    1.9901    0.4912    0.0000 C   0  0  0  0  0  0  0  0  0  0  0  0
   -3.5661   -1.5712    0.0000 O   0  0  0  0  0  0  0  0  0  0  0  0
   -0.7083   -2.3962    0.0000 Cl  0  0  0  0  0  0  0  0  0  0  0  0
    2.2197    1.5712    0.0000 O   0  0  0  0  0  0  0  0  0  0  0  0
    0.7206    1.7287    0.0000 C   0  0  0  0  0  0  0  0  0  0  0  0
   -1.4227    0.4912    0.0000 C   0  0  0  0  0  0  0  0  0  0  0  0
   -2.8516    0.4912    0.0000 C   0  0  0  0  0  0  0  0  0  0  0  0
   -1.9236    0.8756    0.0000 H   0  0  0  0  0  0  0  0  0  0  0  0
   -3.6486   -0.1202    0.0000 H   0  0  0  0  0  0  0  0  0  0  0  0
   -0.7083   -0.7462    0.0000 H   0  0  0  0  0  0  0  0  0  0  0  0
    0.7206   -0.7462    0.0000 H   0  0  0  0  0  0  0  0  0  0  0  0
    0.0062    0.4912    0.0000 H   0  0  0  0  0  0  0  0  0  0  0  0
  1  2  1  1  0  0  0
  1 23  1  0  0  0  0
  1 24  1  0  0  0  0
  2  3  1  0  0  0  0
  2 23  1  0  0  0  0
  2 25  1  1  0  0  0
  3  4  1  0  0  0  0
  3 18  2  0  0  0  0
  4  5  2  0  0  0  0
  5  8  1  0  0  0  0
  6  1  1  6  0  0  0
  6  5  1  0  0  0  0
  6 22  1  0  0  0  0
  7  6  1  1  0  0  0
  7 26  1  0  0  0  0
  8  9  2  0  0  0  0
  8 19  1  0  0  0  0
  9 10  1  0  0  0  0
 10  7  1  6  0  0  0
 10 28  1  0  0  0  0
 11 12  1  0  0  0  0
 11 14  1  0  0  0  0
 12  7  1  0  0  0  0
 13 10  1  1  0  0  0
 13 16  1  0  0  0  0
 13 27  1  0  0  0  0
 14 13  1  1  0  0  0
 14 21  1  0  0  0  0
 15 14  1  6  0  0  0
 15 17  1  0  0  0  0
 15 20  1  0  0  0  0
 16 17  1  0  0  0  0
M  END
$$$$
CN1CCC2(CC1)NCNC2=O
 OpenBabel07182308452D

 13 14  0  0  1  0  0  0  0  0999 V2000
    9.3052   -0.8193    0.0000 O   0  0  0  0  0  0  0  0  0  0  0  0
    9.5601    1.3002    0.0000 N   0  0  0  0  0  0  0  0  0  0  0  0
    7.4252    0.6328    0.0000 N   0  0  0  0  0  0  0  0  0  0  0  0
   10.3447    0.2203    0.0000 N   0  0  0  0  0  0  0  0  0  0  0  0
    9.0752    0.6328    0.0000 C   0  0  0  0  0  0  0  0  0  0  0  0
    8.6627   -0.0817    0.0000 C   0  0  0  0  0  0  0  0  0  0  0  0
    8.6627    1.3473    0.0000 C   0  0  0  0  0  0  0  0  0  0  0  0
    7.8377   -0.0817    0.0000 C   0  0  0  0  0  0  0  0  0  0  0  0
    7.8377    1.3473    0.0000 C   0  0  0  0  0  0  0  0  0  0  0  0
    9.5601   -0.0347    0.0000 C   0  0  0  0  0  0  0  0  0  0  0  0
   10.3447    1.0453    0.0000 C   0  0  0  0  0  0  0  0  0  0  0  0
    6.6001    0.6328    0.0000 C   0  0  0  0  0  0  0  0  0  0  0  0
   11.1412   -0.3583    0.0000 H   0  0  0  0  0  0  0  0  0  0  0  0
  1 10  2  0  0  0  0
  2  5  1  0  0  0  0
  2 11  1  0  0  0  0
  3  8  1  0  0  0  0
  3  9  1  0  0  0  0
  3 12  1  0  0  0  0
  4 10  1  0  0  0  0
  4 11  1  0  0  0  0
  4 13  1  0  0  0  0
  5  6  1  0  0  0  0
  5  7  1  0  0  0  0
  5 10  1  0  0  0  0
  6  8  1  0  0  0  0
  7  9  1  0  0  0  0
M  END
$$$$
OC1CCC[N+](C1)(C)C
 OpenBabel07182308452D

  9  9  0  0  1  0  0  0  0  0999 V2000
    4.5080   -0.5082    0.0000 O   0  0  0  0  0  0  0  0  0  0  0  0
    5.9370   -2.1582    0.0000 N   0  3  0  0  0  0  0  0  0  0  0  0
    5.2224   -1.7457    0.0000 C   0  0  0  0  0  0  0  0  0  0  0  0
    6.6515   -1.7457    0.0000 C   0  0  0  0  0  0  0  0  0  0  0  0
    5.2224   -0.9207    0.0000 C   0  0  3  0  0  0  0  0  0  0  0  0
    6.6515   -0.9207    0.0000 C   0  0  0  0  0  0  0  0  0  0  0  0
    5.9370   -0.5082    0.0000 C   0  0  0  0  0  0  0  0  0  0  0  0
    5.5245   -2.8728    0.0000 C   0  0  0  0  0  0  0  0  0  0  0  0
    6.3495   -2.8728    0.0000 C   0  0  0  0  0  0  0  0  0  0  0  0
  1  5  1  0  0  0  0
  2  3  1  0  0  0  0
  2  4  1  0  0  0  0
  2  8  1  0  0  0  0
  2  9  1  0  0  0  0
  3  5  1  0  0  0  0
  4  6  1  0  0  0  0
  5  7  1  0  0  0  0
  6  7  1  0  0  0  0
M  CHG  1   2   1
M  END
$$$$
O=C1CC2N(CC1C)CCc1c2cccc1
 OpenBabel07182308452D

 16 18  0  0  1  0  0  0  0  0999 V2000
    5.2863    2.3071    0.0000 O   0  0  0  0  0  0  0  0  0  0  0  0
    5.2764   -0.2249    0.0000 N   0  0  3  0  0  0  0  0  0  0  0  0
    4.5619    0.1876    0.0000 C   0  0  3  0  0  0  0  0  0  0  0  0
    6.0337    1.0525    0.0000 C   0  0  3  0  0  0  0  0  0  0  0  0
    6.0271    0.1933    0.0000 C   0  0  0  0  0  0  0  0  0  0  0  0
    4.5487    1.0468    0.0000 C   0  0  0  0  0  0  0  0  0  0  0  0
    5.2764   -1.0498    0.0000 C   0  0  0  0  0  0  0  0  0  0  0  0
    3.8476   -0.2249    0.0000 C   0  0  0  0  0  0  0  0  0  0  0  0
    5.2895    1.4822    0.0000 C   0  0  0  0  0  0  0  0  0  0  0  0
    6.7497    1.4622    0.0000 C   0  0  0  0  0  0  0  0  0  0  0  0
    4.5619   -1.4623    0.0000 C   0  0  0  0  0  0  0  0  0  0  0  0
    3.8476   -1.0498    0.0000 C   0  0  0  0  0  0  0  0  0  0  0  0
    3.1101    0.2162    0.0000 C   0  0  0  0  0  0  0  0  0  0  0  0
    3.1101   -1.4908    0.0000 C   0  0  0  0  0  0  0  0  0  0  0  0
    2.3627   -0.2077    0.0000 C   0  0  0  0  0  0  0  0  0  0  0  0
    2.3627   -1.0669    0.0000 C   0  0  0  0  0  0  0  0  0  0  0  0
  1  9  2  0  0  0  0
  2  3  1  0  0  0  0
  2  5  1  0  0  0  0
  2  7  1  0  0  0  0
  3  6  1  0  0  0  0
  3  8  1  0  0  0  0
  4  5  1  0  0  0  0
  4  9  1  0  0  0  0
  4 10  1  0  0  0  0
  6  9  1  0  0  0  0
  7 11  1  0  0  0  0
  8 12  1  0  0  0  0
  8 13  2  0  0  0  0
 11 12  1  0  0  0  0
 12 14  2  0  0  0  0
 13 15  1  0  0  0  0
 14 16  1  0  0  0  0
 15 16  2  0  0  0  0
M  END
$$$$
O=C1NCC[C@@H]2O[C@]2(C)CCC[C@@H]([C@@H]([C@H](C(=O)C([C@H](C1)O)(C)C)C)O)C
 OpenBabel07182308452D

 30 31  0  0  0  0  0  0  0  0999 V2000
    0.3706    1.8638    0.0000 O   0  0  0  0  0  0  0  0  0  0  0  0
    1.0871    1.4431    0.0000 C   0  0  1  0  0  0  0  0  0  0  0  0
    0.3706    1.0308    0.0000 C   0  0  2  0  0  0  0  0  0  0  0  0
    3.2195   -1.4474    0.0000 C   0  0  0  0  0  0  0  0  0  0  0  0
    2.5115   -1.0350    0.0000 C   0  0  0  0  0  0  0  0  0  0  0  0
    3.9317   -1.0433    0.0000 C   0  0  1  0  0  0  0  0  0  0  0  0
   -0.3623   -1.0308    0.0000 N   0  0  0  0  0  0  0  0  0  0  0  0
    0.3748   -1.4349    0.0000 C   0  0  0  0  0  0  0  0  0  0  0  0
   -0.3498   -0.1978    0.0000 C   0  0  0  0  0  0  0  0  0  0  0  0
    1.7992   -1.4431    0.0000 C   0  0  2  0  0  0  0  0  0  0  0  0
    0.3623    0.2061    0.0000 C   0  0  0  0  0  0  0  0  0  0  0  0
    1.0871   -1.0225    0.0000 C   0  0  0  0  0  0  0  0  0  0  0  0
    3.9359   -0.2228    0.0000 C   0  0  2  0  0  0  0  0  0  0  0  0
    3.2112   -2.2678    0.0000 O   0  0  0  0  0  0  0  0  0  0  0  0
    0.3706   -2.2553    0.0000 O   0  0  0  0  0  0  0  0  0  0  0  0
    3.2237    0.1936    0.0000 C   0  0  2  0  0  0  0  0  0  0  0  0
    1.7992    1.0266    0.0000 C   0  0  0  0  0  0  0  0  0  0  0  0
    4.6481    0.1894    0.0000 O   0  0  0  0  0  0  0  0  0  0  0  0
    1.7951   -2.2595    0.0000 O   0  0  0  0  0  0  0  0  0  0  0  0
    1.0953    2.2678    0.0000 C   0  0  0  0  0  0  0  0  0  0  0  0
    3.0820   -0.4602    0.0000 C   0  0  0  0  0  0  0  0  0  0  0  0
    1.9325   -0.4560    0.0000 C   0  0  0  0  0  0  0  0  0  0  0  0
    4.6356   -1.4556    0.0000 C   0  0  0  0  0  0  0  0  0  0  0  0
    2.5197    1.4389    0.0000 C   0  0  0  0  0  0  0  0  0  0  0  0
    3.2320    1.0183    0.0000 C   0  0  0  0  0  0  0  0  0  0  0  0
    2.5115   -0.2104    0.0000 C   0  0  0  0  0  0  0  0  0  0  0  0
   -0.6289    1.0358    0.0000 H   0  0  0  0  0  0  0  0  0  0  0  0
   -1.2131   -1.5261    0.0000 H   0  0  0  0  0  0  0  0  0  0  0  0
    5.4887   -0.2947    0.0000 H   0  0  0  0  0  0  0  0  0  0  0  0
    0.9526   -2.7403    0.0000 H   0  0  0  0  0  0  0  0  0  0  0  0
  2  1  1  0  0  0  0
  2 20  1  0  0  0  0
  2  3  1  1  0  0  0
  3  1  1  0  0  0  0
  3 27  1  1  0  0  0
  4  6  1  0  0  0  0
  5 10  1  0  0  0  0
  5  4  1  0  0  0  0
  6 13  1  0  0  0  0
  6 23  1  1  0  0  0
  7  9  1  0  0  0  0
  7 28  1  0  0  0  0
  8  7  1  0  0  0  0
  9 11  1  0  0  0  0
 10 12  1  0  0  0  0
 10 19  1  1  0  0  0
 11  3  1  0  0  0  0
 12  8  1  0  0  0  0
 13 16  1  0  0  0  0
 13 18  1  6  0  0  0
 14  4  2  0  0  0  0
 15  8  2  0  0  0  0
 16 25  1  0  0  0  0
 16 26  1  1  0  0  0
 17  2  1  0  0  0  0
 18 29  1  0  0  0  0
 19 30  1  0  0  0  0
 21  5  1  0  0  0  0
 22  5  1  0  0  0  0
 24 17  1  0  0  0  0
 25 24  1  0  0  0  0
M  END
$$$$
Oc1ccc2c(c1)c(C)ncc2O
 OpenBabel07182308452D

 14 15  0  0  0  0  0  0  0  0999 V2000
   -3.2151    0.0000    0.0000 O   0  0  0  0  0  0  0  0  0  0  0  0
   -2.5006    0.4124    0.0000 C   0  0  0  0  0  0  0  0  0  0  0  0
   -2.5006    1.2374    0.0000 C   0  0  0  0  0  0  0  0  0  0  0  0
   -1.7862    1.6500    0.0000 C   0  0  0  0  0  0  0  0  0  0  0  0
   -1.0717    1.2374    0.0000 C   0  0  0  0  0  0  0  0  0  0  0  0
   -1.0717    0.4124    0.0000 C   0  0  0  0  0  0  0  0  0  0  0  0
   -1.7862    0.0000    0.0000 C   0  0  0  0  0  0  0  0  0  0  0  0
   -0.3571    1.6500    0.0000 C   0  0  0  0  0  0  0  0  0  0  0  0
    0.3572    1.2374    0.0000 C   0  0  0  0  0  0  0  0  0  0  0  0
    0.3572    0.4124    0.0000 N   0  0  0  0  0  0  0  0  0  0  0  0
   -0.3571    0.0000    0.0000 C   0  0  0  0  0  0  0  0  0  0  0  0
   -0.3571   -0.8250    0.0000 C   0  0  0  0  0  0  0  0  0  0  0  0
   -0.3571    2.4749    0.0000 O   0  0  0  0  0  0  0  0  0  0  0  0
    0.4544    2.9434    0.0000 H   0  0  0  0  0  0  0  0  0  0  0  0
  1  2  1  0  0  0  0
  2  3  1  0  0  0  0
  3  4  2  0  0  0  0
  4  5  1  0  0  0  0
  5  6  2  0  0  0  0
  5  8  1  0  0  0  0
  6  7  1  0  0  0  0
  7  2  2  0  0  0  0
  8  9  2  0  0  0  0
  8 13  1  0  0  0  0
  9 10  1  0  0  0  0
 10 11  2  0  0  0  0
 11  6  1  0  0  0  0
 11 12  1  0  0  0  0
 13 14  1  0  0  0  0
M  END
$$$$
Fc1ccc2c(c1)CCCO2
 OpenBabel07182308452D

 11 12  0  0  1  0  0  0  0  0999 V2000
    1.6500    1.3710    0.0000 F   0  0  0  0  0  0  0  0  0  0  0  0
    4.5623   -0.2989    0.0000 O   0  0  0  0  0  0  0  0  0  0  0  0
    5.2769    0.1136    0.0000 C   0  0  0  0  0  0  0  0  0  0  0  0
    5.2769    0.9386    0.0000 C   0  0  0  0  0  0  0  0  0  0  0  0
    4.5623    1.3511    0.0000 C   0  0  0  0  0  0  0  0  0  0  0  0
    3.8479    0.9386    0.0000 C   0  0  0  0  0  0  0  0  0  0  0  0
    3.8479    0.1136    0.0000 C   0  0  0  0  0  0  0  0  0  0  0  0
    3.1104    1.3796    0.0000 C   0  0  0  0  0  0  0  0  0  0  0  0
    3.1104   -0.3275    0.0000 C   0  0  0  0  0  0  0  0  0  0  0  0
    2.3629    0.9558    0.0000 C   0  0  0  0  0  0  0  0  0  0  0  0
    2.3629    0.0964    0.0000 C   0  0  0  0  0  0  0  0  0  0  0  0
  1 10  1  0  0  0  0
  2  3  1  0  0  0  0
  2  7  1  0  0  0  0
  3  4  1  0  0  0  0
  4  5  1  0  0  0  0
  5  6  1  0  0  0  0
  6  7  2  0  0  0  0
  6  8  1  0  0  0  0
  7  9  1  0  0  0  0
  8 10  2  0  0  0  0
  9 11  2  0  0  0  0
 10 11  1  0  0  0  0
M  END
$$$$
C/C=C/1\[C@H]2C=C(C[C@]1(N)c1c(C2)[nH]c(=O)cc1)C
 OpenBabel07182308452D

 22 24  0  0  0  0  0  0  0  0999 V2000
    1.8483   -0.4239    0.0000 C   0  0  0  0  0  0  0  0  0  0  0  0
    2.5722   -0.8196    0.0000 O   0  0  0  0  0  0  0  0  0  0  0  0
    1.1437   -0.8531    0.0000 N   0  0  0  0  0  0  0  0  0  0  0  0
    1.8289    0.4008    0.0000 C   0  0  0  0  0  0  0  0  0  0  0  0
    1.1050    0.7964    0.0000 C   0  0  0  0  0  0  0  0  0  0  0  0
    0.4004    0.3672    0.0000 C   0  0  0  0  0  0  0  0  0  0  0  0
    0.4197   -0.4574    0.0000 C   0  0  0  0  0  0  0  0  0  0  0  0
   -0.0240    0.0431    0.0000 C   0  0  0  0  0  0  0  0  0  0  0  0
   -0.9739    0.1817    0.0000 C   0  0  2  0  0  0  0  0  0  0  0  0
   -0.9613   -0.7901    0.0000 C   0  0  0  0  0  0  0  0  0  0  0  0
   -2.5722    1.5848    0.0000 C   0  0  0  0  0  0  0  0  0  0  0  0
   -1.8087    1.6278    0.0000 C   0  0  0  0  0  0  0  0  0  0  0  0
   -1.2693    0.9954    0.0000 C   0  0  0  0  0  0  0  0  0  0  0  0
   -0.5102    0.4902    0.0000 C   0  0  1  0  0  0  0  0  0  0  0  0
   -0.0797    0.9800    0.0000 N   0  0  0  0  0  0  0  0  0  0  0  0
   -0.5073   -0.4461    0.0000 C   0  0  0  0  0  0  0  0  0  0  0  0
   -0.0946   -1.1038    0.0000 C   0  0  0  0  0  0  0  0  0  0  0  0
    0.4864   -1.6279    0.0000 C   0  0  0  0  0  0  0  0  0  0  0  0
   -1.6253    0.4175    0.0000 H   0  0  0  0  0  0  0  0  0  0  0  0
    1.1668   -1.8373    0.0000 H   0  0  0  0  0  0  0  0  0  0  0  0
    0.9205    0.7799    0.0000 H   0  0  0  0  0  0  0  0  0  0  0  0
   -0.4065    1.9462    0.0000 H   0  0  0  0  0  0  0  0  0  0  0  0
  1  2  2  0  0  0  0
  1  3  1  0  0  0  0
  1  4  1  0  0  0  0
  3  7  1  0  0  0  0
  3 20  1  0  0  0  0
  4  5  2  0  0  0  0
  5  6  1  0  0  0  0
  6  7  2  0  0  0  0
  6 14  1  0  0  0  0
  7  8  1  0  0  0  0
  8  9  1  0  0  0  0
  9 10  1  0  0  0  0
  9 13  1  0  0  0  0
  9 19  1  1  0  0  0
 10 17  2  0  0  0  0
 11 12  1  0  0  0  0
 12 13  2  0  0  0  0
 13 14  1  0  0  0  0
 14 15  1  6  0  0  0
 14 16  1  0  0  0  0
 15 21  1  0  0  0  0
 15 22  1  0  0  0  0
 16 17  1  0  0  0  0
 17 18  1  0  0  0  0
M  END
$$$$
O[C@@H]1C=C[C@]23[C@@H]1c1cc4OCOc4cc1CCN3CCC2
 OpenBabel07182308452D

 23 27  0  0  1  0  0  0  0  0999 V2000
    1.5094   -0.4307    0.0000 C   0  0  0  0  0  0  0  0  0  0  0  0
    3.8861    1.0846    0.0000 C   0  0  0  0  0  0  0  0  0  0  0  0
    2.0536   -0.9204    0.0000 C   0  0  0  0  0  0  0  0  0  0  0  0
    1.7748    0.3504    0.0000 C   0  0  0  0  0  0  0  0  0  0  0  0
    3.0635    1.0217    0.0000 C   0  0  0  0  0  0  0  0  0  0  0  0
    5.2156    0.7832    0.0000 C   0  0  0  0  0  0  0  0  0  0  0  0
    4.9722   -0.8488    0.0000 C   0  0  0  0  0  0  0  0  0  0  0  0
    2.3211   -1.0867    0.0000 C   0  0  0  0  0  0  0  0  0  0  0  0
    7.0562   -0.3255    0.0000 C   0  0  0  0  0  0  0  0  0  0  0  0
    4.4481    0.4806    0.0000 C   0  0  0  0  0  0  0  0  0  0  0  0
    4.3264   -0.3353    0.0000 C   0  0  0  0  0  0  0  0  0  0  0  0
    5.8614    0.2698    0.0000 C   0  0  0  0  0  0  0  0  0  0  0  0
    5.7397   -0.5462    0.0000 C   0  0  0  0  0  0  0  0  0  0  0  0
    2.7663   -1.7813    0.0000 C   0  0  0  0  0  0  0  0  0  0  0  0
    3.6125   -0.7489    0.0000 C   0  0  2  0  0  0  0  0  0  0  0  0
    3.5644   -1.5725    0.0000 C   0  0  2  0  0  0  0  0  0  0  0  0
    2.8441   -0.4487    0.0000 C   0  0  2  0  0  0  0  0  0  0  0  0
    2.5998    0.3393    0.0000 N   0  0  3  0  0  0  0  0  0  0  0  0
    6.6751    0.4061    0.0000 O   0  0  0  0  0  0  0  0  0  0  0  0
    6.4781   -0.9141    0.0000 O   0  0  0  0  0  0  0  0  0  0  0  0
    4.2025   -2.0955    0.0000 O   0  0  0  0  0  0  0  0  0  0  0  0
    4.3150   -1.1815    0.0000 H   0  0  0  0  0  0  0  0  0  0  0  0
    3.3881   -2.3784    0.0000 H   0  0  0  0  0  0  0  0  0  0  0  0
  3  1  1  0  0  0  0
  4  1  1  0  0  0  0
  5  2  1  0  0  0  0
 10  2  1  0  0  0  0
 10  6  2  0  0  0  0
 11  7  2  0  0  0  0
 11 10  1  0  0  0  0
 12  6  1  0  0  0  0
 13  7  1  0  0  0  0
 13 12  2  0  0  0  0
 14  8  2  0  0  0  0
 15 11  1  0  0  0  0
 15 16  1  6  0  0  0
 15 22  1  0  0  0  0
 16 14  1  0  0  0  0
 16 21  1  0  0  0  0
 16 23  1  1  0  0  0
 17  3  1  0  0  0  0
 17  8  1  0  0  0  0
 17 15  1  1  0  0  0
 17 18  1  0  0  0  0
 18  4  1  0  0  0  0
 18  5  1  0  0  0  0
 19  9  1  0  0  0  0
 19 12  1  0  0  0  0
 20  9  1  0  0  0  0
 20 13  1  0  0  0  0
M  END
$$$$
Clc1ccc2c(c1)[C@@H](C)CNCC2
 OpenBabel07182308452D

 14 15  0  0  0  0  0  0  0  0999 V2000
    1.0907    1.1736    0.0000 C   0  0  0  0  0  0  0  0  0  0  0  0
    0.3473    0.8156    0.0000 C   0  0  0  0  0  0  0  0  0  0  0  0
    0.1637    0.0114    0.0000 C   0  0  0  0  0  0  0  0  0  0  0  0
    0.6781   -0.6335    0.0000 C   0  0  2  0  0  0  0  0  0  0  0  0
    1.5031   -0.6335    0.0000 C   0  0  0  0  0  0  0  0  0  0  0  0
    2.0175    0.0114    0.0000 N   0  0  0  0  0  0  0  0  0  0  0  0
    1.8340    0.8156    0.0000 C   0  0  0  0  0  0  0  0  0  0  0  0
   -0.2573    1.3769    0.0000 C   0  0  0  0  0  0  0  0  0  0  0  0
   -1.0457    1.1336    0.0000 C   0  0  0  0  0  0  0  0  0  0  0  0
   -1.2292    0.3293    0.0000 C   0  0  0  0  0  0  0  0  0  0  0  0
   -0.6244   -0.2318    0.0000 C   0  0  0  0  0  0  0  0  0  0  0  0
    0.3202   -1.3769    0.0000 C   0  0  0  0  0  0  0  0  0  0  0  0
   -2.0176    0.0861    0.0000 Cl  0  0  0  0  0  0  0  0  0  0  0  0
    3.0119   -0.2157    0.0000 H   0  0  0  0  0  0  0  0  0  0  0  0
  1  2  1  0  0  0  0
  2  8  2  0  0  0  0
  3  4  1  0  0  0  0
  3  2  1  0  0  0  0
  4  5  1  0  0  0  0
  4 12  1  6  0  0  0
  5  6  1  0  0  0  0
  6  7  1  0  0  0  0
  6 14  1  0  0  0  0
  7  1  1  0  0  0  0
  8  9  1  0  0  0  0
  9 10  2  0  0  0  0
 10 11  1  0  0  0  0
 10 13  1  0  0  0  0
 11  3  2  0  0  0  0
M  END
$$$$
N#C[C@@H]1CCCN1
 OpenBabel07182308452D

  7  7  0  0  1  0  0  0  0  0999 V2000
    4.4594    1.7152    0.0000 N   0  0  0  0  0  0  0  0  0  0  0  0
    5.5563   -0.2344    0.0000 N   0  0  0  0  0  0  0  0  0  0  0  0
    5.2132    1.3797    0.0000 C   0  0  1  0  0  0  0  0  0  0  0  0
    4.5458    2.5358    0.0000 C   0  0  0  0  0  0  0  0  0  0  0  0
    5.7652    1.9928    0.0000 C   0  0  0  0  0  0  0  0  0  0  0  0
    5.3527    2.7073    0.0000 C   0  0  0  0  0  0  0  0  0  0  0  0
    5.3848    0.5725    0.0000 C   0  0  0  0  0  0  0  0  0  0  0  0
  1  3  1  0  0  0  0
  1  4  1  0  0  0  0
  2  7  3  0  0  0  0
  3  5  1  0  0  0  0
  3  7  1  1  0  0  0
  4  6  1  0  0  0  0
  5  6  1  0  0  0  0
M  END
$$$$
NC12CC3CC(C1)CC(C2)(C3)O
 OpenBabel07182308452D

 14 16  0  0  1  0  0  0  0  0999 V2000
    4.3037   -2.5383    0.0000 O   0  0  0  0  0  0  0  0  0  0  0  0
    3.0304    0.0651    0.0000 N   0  0  0  0  0  0  0  0  0  0  0  0
    3.0304   -0.7600    0.0000 C   0  0  3  0  0  0  0  0  0  0  0  0
    3.7204   -1.9549    0.0000 C   0  0  3  0  0  0  0  0  0  0  0  0
    2.3405   -1.9549    0.0000 C   0  0  3  0  0  0  0  0  0  0  0  0
    2.4602   -2.3138    0.0000 C   0  0  3  0  0  0  0  0  0  0  0  0
    3.7204   -1.1583    0.0000 C   0  0  0  0  0  0  0  0  0  0  0  0
    2.3405   -1.1583    0.0000 C   0  0  0  0  0  0  0  0  0  0  0  0
    2.4602   -1.4515    0.0000 C   0  0  0  0  0  0  0  0  0  0  0  0
    3.0304   -2.2047    0.0000 C   0  0  0  0  0  0  0  0  0  0  0  0
    3.2074   -2.7073    0.0000 C   0  0  0  0  0  0  0  0  0  0  0  0
    1.6501   -2.3533    0.0000 C   0  0  0  0  0  0  0  0  0  0  0  0
    4.0526   -3.4752    0.0000 H   0  0  0  0  0  0  0  0  0  0  0  0
    2.1470    0.5751    0.0000 H   0  0  0  0  0  0  0  0  0  0  0  0
  1  4  1  0  0  0  0
  1 13  1  0  0  0  0
  2  3  1  0  0  0  0
  2 14  1  0  0  0  0
  3  7  1  0  0  0  0
  3  8  1  0  0  0  0
  3  9  1  0  0  0  0
  4  7  1  0  0  0  0
  4 10  1  0  0  0  0
  4 11  1  0  0  0  0
  5  8  1  0  0  0  0
  5 10  1  0  0  0  0
  5 12  1  0  0  0  0
  6  9  1  0  0  0  0
  6 11  1  0  0  0  0
  6 12  1  0  0  0  0
M  END
$$$$
Cc1c[nH]c(=O)[nH]1
 OpenBabel07182308452D

  9  9  0  0  0  0  0  0  0  0999 V2000
    4.3078    2.9354    0.0000 O   0  0  0  0  0  0  0  0  0  0  0  0
    3.1652    2.0101    0.0000 N   0  0  0  0  0  0  0  0  0  0  0  0
    4.3847    1.4672    0.0000 N   0  0  0  0  0  0  0  0  0  0  0  0
    3.0790    1.1897    0.0000 C   0  0  0  0  0  0  0  0  0  0  0  0
    3.8327    0.8541    0.0000 C   0  0  0  0  0  0  0  0  0  0  0  0
    3.9722    2.1817    0.0000 C   0  0  0  0  0  0  0  0  0  0  0  0
    4.0042    0.0471    0.0000 C   0  0  0  0  0  0  0  0  0  0  0  0
    2.4335    2.6688    0.0000 H   0  0  0  0  0  0  0  0  0  0  0  0
    5.3638    1.3643    0.0000 H   0  0  0  0  0  0  0  0  0  0  0  0
  1  6  2  0  0  0  0
  2  4  1  0  0  0  0
  2  6  1  0  0  0  0
  2  8  1  0  0  0  0
  3  5  1  0  0  0  0
  3  6  1  0  0  0  0
  3  9  1  0  0  0  0
  4  5  2  0  0  0  0
  5  7  1  0  0  0  0
M  END
$$$$
N/C=N\O
 OpenBabel07182308452D

  7  6  0  0  1  0  0  0  0  0999 V2000
    6.2906    5.1506    0.0000 O   0  0  0  0  0  0  0  0  0  0  0  0
    7.7196    4.3256    0.0000 N   0  0  0  0  0  0  0  0  0  0  0  0
    6.2906    4.3256    0.0000 N   0  0  0  0  0  0  0  0  0  0  0  0
    7.0051    3.9131    0.0000 C   0  0  0  0  0  0  0  0  0  0  0  0
    7.1021    5.6191    0.0000 H   0  0  0  0  0  0  0  0  0  0  0  0
    8.5722    3.8333    0.0000 H   0  0  0  0  0  0  0  0  0  0  0  0
    7.7196    5.3101    0.0000 H   0  0  0  0  0  0  0  0  0  0  0  0
  1  3  1  0  0  0  0
  1  5  1  0  0  0  0
  2  4  1  0  0  0  0
  2  6  1  0  0  0  0
  2  7  1  0  0  0  0
  3  4  2  0  0  0  0
M  END
$$$$
C1CCN1
 OpenBabel07182308452D

  4  4  0  0  1  0  0  0  0  0999 V2000
    5.3626   -1.8339    0.0000 N   0  0  0  0  0  0  0  0  0  0  0  0
    5.5761   -1.0370    0.0000 C   0  0  0  0  0  0  0  0  0  0  0  0
    4.5657   -1.6204    0.0000 C   0  0  0  0  0  0  0  0  0  0  0  0
    4.7792   -0.8235    0.0000 C   0  0  0  0  0  0  0  0  0  0  0  0
  1  2  1  0  0  0  0
  1  3  1  0  0  0  0
  2  4  1  0  0  0  0
  3  4  1  0  0  0  0
M  END
$$$$
C[C@@H]1OCC[C@]([C@H]1O)(C)N
 OpenBabel07182308452D

 12 12  0  0  0  0  0  0  0  0999 V2000
    0.4146    5.3682    0.0000 C   0  0  2  0  0  0  0  0  0  0  0  0
   -0.2998    4.1308    0.0000 C   0  0  0  0  0  0  0  0  0  0  0  0
    0.4145    4.5433    0.0000 C   0  0  0  0  0  0  0  0  0  0  0  0
   -1.0142    4.5433    0.0000 O   0  0  0  0  0  0  0  0  0  0  0  0
   -0.2998    5.7807    0.0000 C   0  0  2  0  0  0  0  0  0  0  0  0
   -1.0142    5.3683    0.0000 C   0  0  2  0  0  0  0  0  0  0  0  0
   -0.2998    6.6057    0.0000 O   0  0  0  0  0  0  0  0  0  0  0  0
    0.8271    6.0827    0.0000 C   0  0  0  0  0  0  0  0  0  0  0  0
   -1.7287    5.7808    0.0000 C   0  0  0  0  0  0  0  0  0  0  0  0
    1.1131    4.9301    0.0000 N   0  0  0  0  0  0  0  0  0  0  0  0
    0.5402    7.0907    0.0000 H   0  0  0  0  0  0  0  0  0  0  0  0
    1.0758    3.9108    0.0000 H   0  0  0  0  0  0  0  0  0  0  0  0
  1  8  1  6  0  0  0
  1 10  1  0  0  0  0
  3  1  1  0  0  0  0
  3  2  1  0  0  0  0
  4  2  1  0  0  0  0
  5  1  1  6  0  0  0
  5  7  1  0  0  0  0
  6  4  1  0  0  0  0
  6  5  1  0  0  0  0
  6  9  1  1  0  0  0
  7 11  1  0  0  0  0
 10 12  1  0  0  0  0
M  END
$$$$
C=C1CCNC1=O
 OpenBabel07182308452D

  7  7  0  0  0  0  0  0  0  0999 V2000
    1.9030   -0.8250    0.0000 C   0  0  0  0  0  0  0  0  0  0  0  0
    2.6175   -0.4123    0.0000 C   0  0  0  0  0  0  0  0  0  0  0  0
    2.7036    0.4079    0.0000 C   0  0  0  0  0  0  0  0  0  0  0  0
    3.5107    0.5795    0.0000 C   0  0  0  0  0  0  0  0  0  0  0  0
    3.9233   -0.1349    0.0000 N   0  0  0  0  0  0  0  0  0  0  0  0
    3.3712   -0.7479    0.0000 C   0  0  0  0  0  0  0  0  0  0  0  0
    3.5427   -1.5549    0.0000 O   0  0  0  0  0  0  0  0  0  0  0  0
  1  2  2  0  0  0  0
  2  3  1  0  0  0  0
  2  6  1  0  0  0  0
  3  4  1  0  0  0  0
  4  5  1  0  0  0  0
  5  6  1  0  0  0  0
  6  7  2  0  0  0  0
M  END
$$$$
Nc1ncns1
 OpenBabel07182308452D

  8  8  0  0  0  0  0  0  0  0999 V2000
   -3.9233    0.4124    0.0000 C   0  0  0  0  0  0  0  0  0  0  0  0
   -4.0095   -0.4079    0.0000 N   0  0  0  0  0  0  0  0  0  0  0  0
   -4.8165   -0.5795    0.0000 S   0  0  0  0  0  0  0  0  0  0  0  0
   -5.2289    0.1350    0.0000 C   0  0  0  0  0  0  0  0  0  0  0  0
   -4.6770    0.7480    0.0000 N   0  0  0  0  0  0  0  0  0  0  0  0
   -6.0494    0.2211    0.0000 N   0  0  0  0  0  0  0  0  0  0  0  0
   -6.4500    1.1204    0.0000 H   0  0  0  0  0  0  0  0  0  0  0  0
   -6.6279   -0.5755    0.0000 H   0  0  0  0  0  0  0  0  0  0  0  0
  1  2  2  0  0  0  0
  1  5  1  0  0  0  0
  2  3  1  0  0  0  0
  3  4  1  0  0  0  0
  4  5  2  0  0  0  0
  4  6  1  0  0  0  0
  6  7  1  0  0  0  0
  6  8  1  0  0  0  0
M  END
$$$$
ClC(=C)Cl
 OpenBabel07182308452D

  4  3  0  0  0  0  0  0  0  0999 V2000
   -3.6278    0.5081    0.0000 C   0  0  0  0  0  0  0  0  0  0  0  0
   -4.3423    0.0956    0.0000 C   0  0  0  0  0  0  0  0  0  0  0  0
   -4.3423   -0.7294    0.0000 Cl  0  0  0  0  0  0  0  0  0  0  0  0
   -5.0569    0.5081    0.0000 Cl  0  0  0  0  0  0  0  0  0  0  0  0
  1  2  2  0  0  0  0
  2  3  1  0  0  0  0
  2  4  1  0  0  0  0
M  END
$$$$
Cc1ccc(=O)[nH]c1
 OpenBabel07182308452D

  8  8  0  0  0  0  0  0  0  0999 V2000
    1.6500    0.4125    0.0000 O   0  0  0  0  0  0  0  0  0  0  0  0
    3.0790    0.4125    0.0000 N   0  0  0  0  0  0  0  0  0  0  0  0
    3.7934    0.8250    0.0000 C   0  0  0  0  0  0  0  0  0  0  0  0
    3.7934    1.6500    0.0000 C   0  0  0  0  0  0  0  0  0  0  0  0
    2.3644    0.8250    0.0000 C   0  0  0  0  0  0  0  0  0  0  0  0
    3.0790    2.0625    0.0000 C   0  0  0  0  0  0  0  0  0  0  0  0
    2.3644    1.6500    0.0000 C   0  0  0  0  0  0  0  0  0  0  0  0
    4.5079    2.0625    0.0000 C   0  0  0  0  0  0  0  0  0  0  0  0
  1  5  2  0  0  0  0
  2  3  1  0  0  0  0
  2  5  1  0  0  0  0
  3  4  2  0  0  0  0
  4  6  1  0  0  0  0
  4  8  1  0  0  0  0
  5  7  1  0  0  0  0
  6  7  2  0  0  0  0
M  END
$$$$
Nc1ccccc1N
 OpenBabel07182308452D

 11 11  0  0  0  0  0  0  0  0999 V2000
    3.5220    2.2688    0.0000 N   0  0  0  0  0  0  0  0  0  0  0  0
    2.0930    1.4438    0.0000 N   0  0  0  0  0  0  0  0  0  0  0  0
    3.5220   -0.2063    0.0000 C   0  0  0  0  0  0  0  0  0  0  0  0
    3.5220    1.4438    0.0000 C   0  0  0  0  0  0  0  0  0  0  0  0
    2.8075    0.2063    0.0000 C   0  0  0  0  0  0  0  0  0  0  0  0
    2.8075    1.0313    0.0000 C   0  0  0  0  0  0  0  0  0  0  0  0
    4.2365    0.2063    0.0000 C   0  0  0  0  0  0  0  0  0  0  0  0
    4.2365    1.0313    0.0000 C   0  0  0  0  0  0  0  0  0  0  0  0
    2.6694    2.7611    0.0000 H   0  0  0  0  0  0  0  0  0  0  0  0
    2.0930    2.4283    0.0000 H   0  0  0  0  0  0  0  0  0  0  0  0
    1.2404    0.9515    0.0000 H   0  0  0  0  0  0  0  0  0  0  0  0
  1  4  1  0  0  0  0
  1  9  1  0  0  0  0
  2  6  1  0  0  0  0
  2 10  1  0  0  0  0
  2 11  1  0  0  0  0
  3  5  2  0  0  0  0
  3  7  1  0  0  0  0
  4  6  2  0  0  0  0
  4  8  1  0  0  0  0
  5  6  1  0  0  0  0
  7  8  2  0  0  0  0
M  END
$$$$
CC1=C[C@]23[C@]([C@H]1O)(O)[C@H](O)C=C[C@@H](C3=O)[C@H]1[C@@H](C[C@H]2C)C1(C)C
 OpenBabel07182308452D

 28 31  0  0  0  0  0  0  0  0999 V2000
    0.3308    0.4590    0.0000 C   0  0  2  0  0  0  0  0  0  0  0  0
   -0.4111    0.0994    0.0000 C   0  0  1  0  0  0  0  0  0  0  0  0
    1.0751    0.1018    0.0000 C   0  0  0  0  0  0  0  0  0  0  0  0
    0.8449    1.1035    0.0000 C   0  0  1  0  0  0  0  0  0  0  0  0
    0.2198    1.2767    0.0000 C   0  0  0  0  0  0  0  0  0  0  0  0
   -0.9813    0.6957    0.0000 C   0  0  2  0  0  0  0  0  0  0  0  0
   -0.5941   -0.7050    0.0000 C   0  0  1  0  0  0  0  0  0  0  0  0
   -1.2061   -0.1200    0.0000 O   0  0  0  0  0  0  0  0  0  0  0  0
    1.2592   -0.7036    0.0000 C   0  0  1  0  0  0  0  0  0  0  0  0
    1.7203    0.6156    0.0000 O   0  0  0  0  0  0  0  0  0  0  0  0
    1.6708    1.1055    0.0000 C   0  0  0  0  0  0  0  0  0  0  0  0
    0.4858    1.8477    0.0000 C   0  0  0  0  0  0  0  0  0  0  0  0
   -0.5913    1.4220    0.0000 C   0  0  0  0  0  0  0  0  0  0  0  0
   -1.7991    0.5844    0.0000 O   0  0  0  0  0  0  0  0  0  0  0  0
   -0.0802   -1.3480    0.0000 C   0  0  0  0  0  0  0  0  0  0  0  0
   -1.3996   -0.8889    0.0000 O   0  0  0  0  0  0  0  0  0  0  0  0
    2.0015   -0.3440    0.0000 C   0  0  1  0  0  0  0  0  0  0  0  0
    0.7454   -1.3480    0.0000 C   0  0  0  0  0  0  0  0  0  0  0  0
    2.1845    0.4604    0.0000 C   0  0  2  0  0  0  0  0  0  0  0  0
   -0.9503    2.1662    0.0000 C   0  0  0  0  0  0  0  0  0  0  0  0
    2.7895   -0.1002    0.0000 C   0  0  0  0  0  0  0  0  0  0  0  0
    3.4495    0.3976    0.0000 C   0  0  0  0  0  0  0  0  0  0  0  0
    3.1693   -0.8345    0.0000 C   0  0  0  0  0  0  0  0  0  0  0  0
    2.3053   -1.1127    0.0000 H   0  0  0  0  0  0  0  0  0  0  0  0
    2.7910    1.0221    0.0000 H   0  0  0  0  0  0  0  0  0  0  0  0
    1.8426   -1.2869    0.0000 H   0  0  0  0  0  0  0  0  0  0  0  0
   -1.8971    0.5607    0.0000 H   0  0  0  0  0  0  0  0  0  0  0  0
   -2.0594   -0.1779    0.0000 H   0  0  0  0  0  0  0  0  0  0  0  0
  1  2  1  1  0  0  0
  1  3  1  0  0  0  0
  1  5  1  0  0  0  0
  2  8  1  1  0  0  0
  3 10  2  0  0  0  0
  4  1  1  6  0  0  0
  4 11  1  0  0  0  0
  4 12  1  0  0  0  0
  5 13  2  0  0  0  0
  6  2  1  1  0  0  0
  6 13  1  0  0  0  0
  6 14  1  0  0  0  0
  7  2  1  1  0  0  0
  7 15  1  0  0  0  0
  7 16  1  0  0  0  0
  8 27  1  0  0  0  0
  9  3  1  0  0  0  0
  9 17  1  1  0  0  0
  9 18  1  0  0  0  0
  9 26  1  0  0  0  0
 11 19  1  0  0  0  0
 13 20  1  0  0  0  0
 15 18  2  0  0  0  0
 16 28  1  0  0  0  0
 17 19  1  6  0  0  0
 17 21  1  0  0  0  0
 17 24  1  0  0  0  0
 19 21  1  0  0  0  0
 19 25  1  6  0  0  0
 21 22  1  0  0  0  0
 21 23  1  0  0  0  0
M  END
$$$$
c1ncno1
 OpenBabel07182308452D

  5  5  0  0  0  0  0  0  0  0999 V2000
    3.3809    1.3684    0.0000 O   0  0  0  0  0  0  0  0  0  0  0  0
    4.4609    0.5838    0.0000 N   0  0  0  0  0  0  0  0  0  0  0  0
    3.1260    0.5838    0.0000 N   0  0  0  0  0  0  0  0  0  0  0  0
    3.7935    0.0988    0.0000 C   0  0  0  0  0  0  0  0  0  0  0  0
    4.2060    1.3684    0.0000 C   0  0  0  0  0  0  0  0  0  0  0  0
  1  3  1  0  0  0  0
  1  5  1  0  0  0  0
  2  4  1  0  0  0  0
  2  5  2  0  0  0  0
  3  4  2  0  0  0  0
M  END
$$$$
O[C@@H]1[C@@H](O)CNC[C@@H]1O
 OpenBabel07182308452D

 13 13  0  0  0  0  0  0  0  0999 V2000
    1.0718   -0.2062    0.0000 N   0  0  0  0  0  0  0  0  0  0  0  0
    1.0718    0.6187    0.0000 C   0  0  0  0  0  0  0  0  0  0  0  0
    0.3571    1.0313    0.0000 C   0  0  1  0  0  0  0  0  0  0  0  0
   -0.3573    0.6187    0.0000 C   0  0  2  0  0  0  0  0  0  0  0  0
   -0.3573   -0.2062    0.0000 C   0  0  2  0  0  0  0  0  0  0  0  0
    0.3571   -0.6187    0.0000 C   0  0  0  0  0  0  0  0  0  0  0  0
   -1.0717   -0.6187    0.0000 O   0  0  0  0  0  0  0  0  0  0  0  0
   -1.0717    1.0313    0.0000 O   0  0  0  0  0  0  0  0  0  0  0  0
    0.3571    1.8563    0.0000 O   0  0  0  0  0  0  0  0  0  0  0  0
    1.9551   -0.7163    0.0000 H   0  0  0  0  0  0  0  0  0  0  0  0
   -1.9118   -0.1337    0.0000 H   0  0  0  0  0  0  0  0  0  0  0  0
   -1.0716    2.0013    0.0000 H   0  0  0  0  0  0  0  0  0  0  0  0
    1.1971    2.3413    0.0000 H   0  0  0  0  0  0  0  0  0  0  0  0
  1  2  1  0  0  0  0
  1 10  1  0  0  0  0
  2  3  1  0  0  0  0
  3  4  1  0  0  0  0
  3  9  1  1  0  0  0
  4  5  1  0  0  0  0
  4  8  1  6  0  0  0
  5  6  1  0  0  0  0
  5  7  1  6  0  0  0
  6  1  1  0  0  0  0
  7 11  1  0  0  0  0
  8 12  1  0  0  0  0
  9 13  1  0  0  0  0
M  END
$$$$
NC1Cc2c(C1)cccc2
 OpenBabel07182308452D
Created with ChemWriter - http://chemwriter.com
 11 12  0  0  1  0  0  0  0  0999 V2000
    6.1389    0.6245    0.0000 N   0  0  0  0  0  0  0  0  0  0  0  0
    5.4244    1.0370    0.0000 C   0  0  0  0  0  0  0  0  0  0  0  0
    4.6755    0.7028    0.0000 C   0  0  0  0  0  0  0  0  0  0  0  0
    5.3394    1.8527    0.0000 C   0  0  0  0  0  0  0  0  0  0  0  0
    4.1251    1.3109    0.0000 C   0  0  0  0  0  0  0  0  0  0  0  0
    4.5376    2.0253    0.0000 C   0  0  0  0  0  0  0  0  0  0  0  0
    3.3001    1.3109    0.0000 C   0  0  0  0  0  0  0  0  0  0  0  0
    4.1251    2.7399    0.0000 C   0  0  0  0  0  0  0  0  0  0  0  0
    2.8876    2.0253    0.0000 C   0  0  0  0  0  0  0  0  0  0  0  0
    3.3001    2.7399    0.0000 C   0  0  0  0  0  0  0  0  0  0  0  0
    7.0222    1.1345    0.0000 H   0  0  0  0  0  0  0  0  0  0  0  0
  1  2  1  0  0  0  0
  1 11  1  0  0  0  0
  2  3  1  0  0  0  0
  2  4  1  0  0  0  0
  3  5  1  0  0  0  0
  4  6  1  0  0  0  0
  5  6  1  0  0  0  0
  5  7  2  0  0  0  0
  6  8  2  0  0  0  0
  7  9  1  0  0  0  0
  8 10  1  0  0  0  0
  9 10  2  0  0  0  0
M  END
$$$$
O=C1SCCC1N
 OpenBabel07182308452D

  8  8  0  0  1  0  0  0  0  0999 V2000
    2.6896   -3.0314    0.0000 S   0  0  0  0  0  0  0  0  0  0  0  0
    1.6500   -1.9918    0.0000 O   0  0  0  0  0  0  0  0  0  0  0  0
    3.1022   -0.9369    0.0000 N   0  0  0  0  0  0  0  0  0  0  0  0
    3.1022   -1.7619    0.0000 C   0  0  3  0  0  0  0  0  0  0  0  0
    3.7696   -2.2469    0.0000 C   0  0  0  0  0  0  0  0  0  0  0  0
    3.5147   -3.0314    0.0000 C   0  0  0  0  0  0  0  0  0  0  0  0
    2.4347   -2.2469    0.0000 C   0  0  0  0  0  0  0  0  0  0  0  0
    2.2496   -0.4447    0.0000 H   0  0  0  0  0  0  0  0  0  0  0  0
  1  6  1  0  0  0  0
  1  7  1  0  0  0  0
  2  7  2  0  0  0  0
  3  4  1  0  0  0  0
  3  8  1  0  0  0  0
  4  5  1  0  0  0  0
  4  7  1  0  0  0  0
  5  6  1  0  0  0  0
M  END
$$$$
C[C@@]1(O)CC[C@]2([C@H](C1)CC[C@@H]1[C@@H]2CC[C@]2([C@H]1CCC2)C)C
 OpenBabel07182308452D

 26 29  0  0  0  0  0  0  0  0999 V2000
   -3.2371   -1.0083    0.0000 O   0  0  0  0  0  0  0  0  0  0  0  0
    1.2945    0.5323    0.0000 C   0  0  1  0  0  0  0  0  0  0  0  0
   -0.9460   -0.5188    0.0000 C   0  0  2  0  0  0  0  0  0  0  0  0
   -0.1991   -0.1685    0.0000 C   0  0  2  0  0  0  0  0  0  0  0  0
    1.2246   -0.2896    0.0000 C   0  0  2  0  0  0  0  0  0  0  0  0
    0.4777   -0.6399    0.0000 C   0  0  2  0  0  0  0  0  0  0  0  0
   -1.0159   -1.3410    0.0000 C   0  0  1  0  0  0  0  0  0  0  0  0
    2.0981    0.7199    0.0000 C   0  0  0  0  0  0  0  0  0  0  0  0
    0.6175    1.0040    0.0000 C   0  0  0  0  0  0  0  0  0  0  0  0
   -0.1292    0.6534    0.0000 C   0  0  0  0  0  0  0  0  0  0  0  0
    0.4078   -1.4621    0.0000 C   0  0  0  0  0  0  0  0  0  0  0  0
    1.9849   -0.6100    0.0000 C   0  0  0  0  0  0  0  0  0  0  0  0
   -1.6229   -0.0473    0.0000 C   0  0  0  0  0  0  0  0  0  0  0  0
   -0.3390   -1.8125    0.0000 C   0  0  0  0  0  0  0  0  0  0  0  0
    2.5246    0.0138    0.0000 C   0  0  0  0  0  0  0  0  0  0  0  0
   -1.7628   -1.6915    0.0000 C   0  0  0  0  0  0  0  0  0  0  0  0
   -2.4398   -1.2198    0.0000 C   0  0  1  0  0  0  0  0  0  0  0  0
    1.4500    1.3428    0.0000 C   0  0  0  0  0  0  0  0  0  0  0  0
   -0.8761    0.3031    0.0000 C   0  0  0  0  0  0  0  0  0  0  0  0
   -2.3699   -0.3978    0.0000 C   0  0  0  0  0  0  0  0  0  0  0  0
   -2.7867   -1.9684    0.0000 C   0  0  0  0  0  0  0  0  0  0  0  0
    0.6913    0.1568    0.0000 H   0  0  0  0  0  0  0  0  0  0  0  0
    1.2410   -1.1144    0.0000 H   0  0  0  0  0  0  0  0  0  0  0  0
   -0.1991   -0.9935    0.0000 H   0  0  0  0  0  0  0  0  0  0  0  0
   -1.2295   -2.1379    0.0000 H   0  0  0  0  0  0  0  0  0  0  0  0
   -3.4905   -0.0720    0.0000 H   0  0  0  0  0  0  0  0  0  0  0  0
  1 17  1  0  0  0  0
  1 26  1  0  0  0  0
  2  5  1  1  0  0  0
  2  8  1  0  0  0  0
  2  9  1  0  0  0  0
  2 18  1  0  0  0  0
  3  4  1  6  0  0  0
  3 13  1  0  0  0  0
  3 19  1  0  0  0  0
  4  6  1  1  0  0  0
  4 10  1  0  0  0  0
  4 24  1  0  0  0  0
  5  6  1  1  0  0  0
  5 12  1  0  0  0  0
  5 23  1  0  0  0  0
  6 11  1  0  0  0  0
  6 22  1  1  0  0  0
  7  3  1  6  0  0  0
  7 14  1  0  0  0  0
  7 16  1  0  0  0  0
  7 25  1  0  0  0  0
  8 15  1  0  0  0  0
  9 10  1  0  0  0  0
 11 14  1  0  0  0  0
 12 15  1  0  0  0  0
 13 20  1  0  0  0  0
 16 17  1  0  0  0  0
 17 20  1  0  0  0  0
 17 21  1  1  0  0  0
M  END
$$$$
Oc1ccc2c(c1)CCN[C@@]12CS[C@@H]2c3c(O)c(C)c4c(c3[C@H](COC1=O)N1[C@@H]2[C@@H]2N(C)[C@H]([C@@H]1O)Cc1c2c(O)cc(c1)C)OCO4
 OpenBabel07182308452D

 52 60  0  0  1  0  0  0  0  0999 V2000
   12.6124   -3.3240    0.0000 O   0  0  0  0  0  0  0  0  0  0  0  0
   12.7839   -0.0421    0.0000 O   0  0  0  0  0  0  0  0  0  0  0  0
   11.4563   -2.6566    0.0000 O   0  0  0  0  0  0  0  0  0  0  0  0
   13.4984   -1.2796    0.0000 C   0  0  0  0  0  0  0  0  0  0  0  0
   13.4984   -2.1046    0.0000 C   0  0  0  0  0  0  0  0  0  0  0  0
   12.7839   -2.5171    0.0000 C   0  0  0  0  0  0  0  0  0  0  0  0
   12.7839   -0.8671    0.0000 C   0  0  0  0  0  0  0  0  0  0  0  0
   12.0694   -2.1046    0.0000 C   0  0  0  0  0  0  0  0  0  0  0  0
   12.0694   -1.2796    0.0000 C   0  0  0  0  0  0  0  0  0  0  0  0
   11.7919   -3.4103    0.0000 C   0  0  0  0  0  0  0  0  0  0  0  0
   11.3550   -0.8671    0.0000 C   0  0  0  0  0  0  0  0  0  0  0  0
   14.2128   -0.8670    0.0000 C   0  0  2  0  0  0  0  0  0  0  0  0
   14.2128   -2.5171    0.0000 C   0  0  1  0  0  0  0  0  0  0  0  0
   14.9273   -2.1046    0.0000 N   0  0  3  0  0  0  0  0  0  0  0  0
   14.9273   -1.2795    0.0000 C   0  0  2  0  0  0  0  0  0  0  0  0
   15.6418   -0.8670    0.0000 C   0  0  2  0  0  0  0  0  0  0  0  0
   15.6418   -2.5171    0.0000 C   0  0  2  0  0  0  0  0  0  0  0  0
   16.3562   -2.1046    0.0000 C   0  0  1  0  0  0  0  0  0  0  0  0
   16.3562   -1.2795    0.0000 N   0  0  0  0  0  0  0  0  0  0  0  0
   12.7839    3.0370    0.0000 C   0  0  0  0  0  0  0  0  0  0  0  0
   12.0694    2.6244    0.0000 C   0  0  0  0  0  0  0  0  0  0  0  0
   12.0694    1.7994    0.0000 C   0  0  0  0  0  0  0  0  0  0  0  0
   12.7839    1.3869    0.0000 C   0  0  0  0  0  0  0  0  0  0  0  0
   13.4984    1.7994    0.0000 C   0  0  0  0  0  0  0  0  0  0  0  0
   13.4984    2.6244    0.0000 C   0  0  0  0  0  0  0  0  0  0  0  0
   14.2128    3.0370    0.0000 C   0  0  0  0  0  0  0  0  0  0  0  0
   14.2128    1.3869    0.0000 C   0  0  2  0  0  0  0  0  0  0  0  0
   14.9273    1.7994    0.0000 N   0  0  0  0  0  0  0  0  0  0  0  0
   14.9273    2.6244    0.0000 C   0  0  0  0  0  0  0  0  0  0  0  0
   11.3550    3.0369    0.0000 O   0  0  0  0  0  0  0  0  0  0  0  0
   14.3307   -1.6626    0.0000 C   0  0  0  0  0  0  0  0  0  0  0  0
   13.8003   -0.3883    0.0000 O   0  0  0  0  0  0  0  0  0  0  0  0
   14.6253   -0.1526    0.0000 S   0  0  0  0  0  0  0  0  0  0  0  0
   14.6253    0.6724    0.0000 C   0  0  0  0  0  0  0  0  0  0  0  0
   13.6295    0.8036    0.0000 C   0  0  0  0  0  0  0  0  0  0  0  0
   16.9890   -0.9215    0.0000 C   0  0  0  0  0  0  0  0  0  0  0  0
   12.8326    1.0171    0.0000 O   0  0  0  0  0  0  0  0  0  0  0  0
   15.6418   -3.3421    0.0000 O   0  0  0  0  0  0  0  0  0  0  0  0
   14.9273   -0.4545    0.0000 H   0  0  0  0  0  0  0  0  0  0  0  0
   17.5946   -0.5362    0.0000 C   0  0  0  0  0  0  0  0  0  0  0  0
   17.5946    1.1138    0.0000 C   0  0  0  0  0  0  0  0  0  0  0  0
   16.8801    0.7013    0.0000 C   0  0  0  0  0  0  0  0  0  0  0  0
   18.3091   -0.1237    0.0000 C   0  0  0  0  0  0  0  0  0  0  0  0
   18.3091    0.7013    0.0000 C   0  0  0  0  0  0  0  0  0  0  0  0
   19.0235    1.1138    0.0000 C   0  0  0  0  0  0  0  0  0  0  0  0
   16.1657    1.1138    0.0000 O   0  0  0  0  0  0  0  0  0  0  0  0
   16.8801   -0.1237    0.0000 C   0  0  0  0  0  0  0  0  0  0  0  0
   17.5946   -1.3612    0.0000 C   0  0  0  0  0  0  0  0  0  0  0  0
   15.8106    1.2894    0.0000 H   0  0  0  0  0  0  0  0  0  0  0  0
   11.3550    3.9739    0.0000 H   0  0  0  0  0  0  0  0  0  0  0  0
   14.8018   -3.8271    0.0000 H   0  0  0  0  0  0  0  0  0  0  0  0
   16.1657    2.0508    0.0000 H   0  0  0  0  0  0  0  0  0  0  0  0
  1  6  1  0  0  0  0
  1 10  1  0  0  0  0
  2  7  1  0  0  0  0
  3  8  1  0  0  0  0
  3 10  1  0  0  0  0
  4  7  2  0  0  0  0
  4  5  1  0  0  0  0
  5  6  2  0  0  0  0
  5 13  1  0  0  0  0
  6  8  1  0  0  0  0
  7  9  1  0  0  0  0
  8  9  2  0  0  0  0
  9 11  1  0  0  0  0
 12  4  1  0  0  0  0
 12 15  1  1  0  0  0
 12 33  1  0  0  0  0
 13 14  1  6  0  0  0
 13 31  1  0  0  0  0
 15 14  1  6  0  0  0
 15 39  1  0  0  0  0
 16 15  1  1  0  0  0
 16 19  1  0  0  0  0
 16 47  1  0  0  0  0
 17 14  1  6  0  0  0
 17 18  1  0  0  0  0
 17 38  1  0  0  0  0
 18 19  1  0  0  0  0
 18 48  1  1  0  0  0
 19 36  1  0  0  0  0
 20 21  2  0  0  0  0
 20 25  1  0  0  0  0
 21 22  1  0  0  0  0
 21 30  1  0  0  0  0
 22 23  2  0  0  0  0
 23 24  1  0  0  0  0
 24 25  2  0  0  0  0
 24 27  1  0  0  0  0
 26 25  1  0  0  0  0
 26 29  1  0  0  0  0
 27 28  1  0  0  0  0
 27 34  1  6  0  0  0
 27 35  1  0  0  0  0
 28 29  1  0  0  0  0
 28 49  1  0  0  0  0
 30 50  1  0  0  0  0
 31 32  1  0  0  0  0
 32 35  1  0  0  0  0
 34 33  1  0  0  0  0
 35 37  2  0  0  0  0
 38 51  1  0  0  0  0
 40 43  2  0  0  0  0
 41 42  1  0  0  0  0
 41 44  2  0  0  0  0
 42 47  2  0  0  0  0
 42 46  1  0  0  0  0
 43 44  1  0  0  0  0
 44 45  1  0  0  0  0
 46 52  1  0  0  0  0
 47 40  1  0  0  0  0
 48 40  1  0  0  0  0
M  END
$$$$
O[C@H]1Cn2ccnc2OC1
 OpenBabel07182308452D

 10 11  0  0  1  0  0  0  0  0999 V2000
    6.6515    0.0553    0.0000 O   0  0  0  0  0  0  0  0  0  0  0  0
    8.0804   -1.5948    0.0000 O   0  0  0  0  0  0  0  0  0  0  0  0
    8.7949   -0.3572    0.0000 N   0  0  0  0  0  0  0  0  0  0  0  0
    9.5756   -1.4336    0.0000 N   0  0  0  0  0  0  0  0  0  0  0  0
    7.3659   -0.3572    0.0000 C   0  0  1  0  0  0  0  0  0  0  0  0
    8.0804    0.0553    0.0000 C   0  0  0  0  0  0  0  0  0  0  0  0
    7.3659   -1.1823    0.0000 C   0  0  0  0  0  0  0  0  0  0  0  0
    8.7949   -1.1823    0.0000 C   0  0  0  0  0  0  0  0  0  0  0  0
    9.5756   -0.1058    0.0000 C   0  0  0  0  0  0  0  0  0  0  0  0
   10.0571   -0.7697    0.0000 C   0  0  0  0  0  0  0  0  0  0  0  0
  2  7  1  0  0  0  0
  2  8  1  0  0  0  0
  3  6  1  0  0  0  0
  3  8  1  0  0  0  0
  3  9  1  0  0  0  0
  4  8  2  0  0  0  0
  4 10  1  0  0  0  0
  5  1  1  1  0  0  0
  5  6  1  0  0  0  0
  5  7  1  0  0  0  0
  9 10  2  0  0  0  0
M  END
$$$$
N#Cc1ccc(cc1)O
 OpenBabel07182308452D

  9  9  0  0  0  0  0  0  0  0999 V2000
   -1.4158   -0.6176    0.0000 C   0  0  0  0  0  0  0  0  0  0  0  0
   -2.1345   -0.2124    0.0000 C   0  0  0  0  0  0  0  0  0  0  0  0
   -2.1429    0.6125    0.0000 C   0  0  0  0  0  0  0  0  0  0  0  0
   -1.4326    1.0322    0.0000 C   0  0  0  0  0  0  0  0  0  0  0  0
   -0.7140    0.6271    0.0000 C   0  0  0  0  0  0  0  0  0  0  0  0
   -0.7056   -0.1978    0.0000 C   0  0  0  0  0  0  0  0  0  0  0  0
   -2.8451   -0.6324    0.0000 C   0  0  0  0  0  0  0  0  0  0  0  0
   -3.4133   -0.9682    0.0000 N   0  0  0  0  0  0  0  0  0  0  0  0
   -0.0025    1.0456    0.0000 O   0  0  0  0  0  0  0  0  0  0  0  0
  1  2  2  0  0  0  0
  1  6  1  0  0  0  0
  2  3  1  0  0  0  0
  2  7  1  0  0  0  0
  3  4  2  0  0  0  0
  4  5  1  0  0  0  0
  5  6  2  0  0  0  0
  5  9  1  0  0  0  0
  7  8  3  0  0  0  0
M  END
$$$$
OB1OCc2c1cccc2
 OpenBabel07182308452D

 11 12  0  0  0  0  0  0  0  0999 V2000
    0.7158    0.6392    0.0000 C   0  0  0  0  0  0  0  0  0  0  0  0
    1.4378    1.0603    0.0000 C   0  0  0  0  0  0  0  0  0  0  0  0
    2.1498    0.6392    0.0000 C   0  0  0  0  0  0  0  0  0  0  0  0
    2.1498   -0.1830    0.0000 C   0  0  0  0  0  0  0  0  0  0  0  0
    1.4378   -0.6041    0.0000 C   0  0  0  0  0  0  0  0  0  0  0  0
    0.7158   -0.1830    0.0000 C   0  0  0  0  0  0  0  0  0  0  0  0
    2.9320    0.8899    0.0000 C   0  0  0  0  0  0  0  0  0  0  0  0
    3.4133    0.2380    0.0000 O   0  0  0  0  0  0  0  0  0  0  0  0
    2.9320   -0.4337    0.0000 B   0  0  0  0  0  0  0  0  0  0  0  0
    3.1393   -1.0603    0.0000 O   0  0  0  0  0  0  0  0  0  0  0  0
    2.4941   -1.7846    0.0000 H   0  0  0  0  0  0  0  0  0  0  0  0
  1  2  2  0  0  0  0
  1  6  1  0  0  0  0
  2  3  1  0  0  0  0
  3  7  1  0  0  0  0
  3  4  2  0  0  0  0
  4  5  1  0  0  0  0
  4  9  1  0  0  0  0
  5  6  2  0  0  0  0
  7  8  1  0  0  0  0
  8  9  1  0  0  0  0
  9 10  1  0  0  0  0
 10 11  1  0  0  0  0
M  END
$$$$
OC1CNC1
 OpenBabel07182308452D

  6  6  0  0  0  0  0  0  0  0999 V2000
    1.1616    0.8390    0.0000 C   0  0  0  0  0  0  0  0  0  0  0  0
    1.7450    0.2556    0.0000 C   0  0  0  0  0  0  0  0  0  0  0  0
    1.1616   -0.3276    0.0000 N   0  0  0  0  0  0  0  0  0  0  0  0
    0.5782    0.2556    0.0000 C   0  0  0  0  0  0  0  0  0  0  0  0
    0.5782    1.4224    0.0000 O   0  0  0  0  0  0  0  0  0  0  0  0
    0.8293    2.3593    0.0000 H   0  0  0  0  0  0  0  0  0  0  0  0
  1  2  1  0  0  0  0
  1  5  1  0  0  0  0
  2  3  1  0  0  0  0
  3  4  1  0  0  0  0
  4  1  1  0  0  0  0
  5  6  1  0  0  0  0
M  END
$$$$
Fc1c(N)cccc1F
 OpenBabel07182308452D

 10 10  0  0  0  0  0  0  0  0999 V2000
   -0.2672   -1.1526    0.0000 C   0  0  0  0  0  0  0  0  0  0  0  0
    0.4471   -1.5651    0.0000 C   0  0  0  0  0  0  0  0  0  0  0  0
   -0.2672   -0.3276    0.0000 N   0  0  0  0  0  0  0  0  0  0  0  0
   -0.9818   -1.5651    0.0000 C   0  0  0  0  0  0  0  0  0  0  0  0
   -1.6962   -1.1526    0.0000 F   0  0  0  0  0  0  0  0  0  0  0  0
   -0.9818   -2.3901    0.0000 C   0  0  0  0  0  0  0  0  0  0  0  0
   -1.6962   -2.8026    0.0000 F   0  0  0  0  0  0  0  0  0  0  0  0
   -0.2672   -2.8026    0.0000 C   0  0  0  0  0  0  0  0  0  0  0  0
    0.4471   -2.3901    0.0000 C   0  0  0  0  0  0  0  0  0  0  0  0
    0.5854    0.1647    0.0000 H   0  0  0  0  0  0  0  0  0  0  0  0
  1  2  2  0  0  0  0
  1  4  1  0  0  0  0
  3  1  1  0  0  0  0
  3 10  1  0  0  0  0
  4  6  2  0  0  0  0
  5  4  1  0  0  0  0
  6  7  1  0  0  0  0
  6  8  1  0  0  0  0
  8  9  2  0  0  0  0
  9  2  1  0  0  0  0
M  END
$$$$
Fc1cccc(c1)I
 OpenBabel07182308452D

  8  8  0  0  0  0  0  0  0  0999 V2000
   -1.6962    1.3223    0.0000 C   0  0  0  0  0  0  0  0  0  0  0  0
   -0.9818    0.9098    0.0000 C   0  0  0  0  0  0  0  0  0  0  0  0
   -2.4108    0.9098    0.0000 C   0  0  0  0  0  0  0  0  0  0  0  0
   -2.4108    0.0848    0.0000 C   0  0  0  0  0  0  0  0  0  0  0  0
   -1.6962   -0.3276    0.0000 C   0  0  0  0  0  0  0  0  0  0  0  0
   -0.9818    0.0848    0.0000 C   0  0  0  0  0  0  0  0  0  0  0  0
   -0.2672    1.3223    0.0000 F   0  0  0  0  0  0  0  0  0  0  0  0
   -3.1252    1.3223    0.0000 I   0  0  0  0  0  0  0  0  0  0  0  0
  1  2  1  0  0  0  0
  1  3  2  0  0  0  0
  2  6  2  0  0  0  0
  3  4  1  0  0  0  0
  3  8  1  0  0  0  0
  4  5  2  0  0  0  0
  6  5  1  0  0  0  0
  7  2  1  0  0  0  0
M  END
$$$$
[Ag+]
 OpenBabel07182308452D

  1  0  0  0  0  0  0  0  0  0999 V2000
    1.7606    1.7779    0.0000 Ag  0  3  0  0  0 15  0  0  0  0  0  0
M  CHG  1   1   1
M  END
$$$$
[NH-]S(=O)=O
 OpenBabel07182308452D

  4  3  0  0  0  0  0  0  0  0999 V2000
    2.4751    0.5404    0.0000 S   0  0  0  0  0  0  0  0  0  0  0  0
    1.6500    0.5404    0.0000 O   0  0  0  0  0  0  0  0  0  0  0  0
    3.3001    0.5404    0.0000 O   0  0  0  0  0  0  0  0  0  0  0  0
    2.4751    1.3654    0.0000 N   0  5  0  0  0  0  0  0  0  0  0  0
  1  2  2  0  0  0  0
  1  3  2  0  0  0  0
  1  4  1  0  0  0  0
M  CHG  1   4  -1
M  END
$$$$
CC1CC(=O)N(C1=O)C
 OpenBabel07182308452D

  9  9  0  0  1  0  0  0  0  0999 V2000
    3.7445   -0.4772    0.0000 O   0  0  0  0  0  0  0  0  0  0  0  0
    2.8472    2.2848    0.0000 O   0  0  0  0  0  0  0  0  0  0  0  0
    3.5146    0.9748    0.0000 N   0  0  0  0  0  0  0  0  0  0  0  0
    2.4347    0.1902    0.0000 C   0  0  3  0  0  0  0  0  0  0  0  0
    2.1796    0.9748    0.0000 C   0  0  0  0  0  0  0  0  0  0  0  0
    3.2597    0.1902    0.0000 C   0  0  0  0  0  0  0  0  0  0  0  0
    1.6500   -0.0647    0.0000 C   0  0  0  0  0  0  0  0  0  0  0  0
    2.8472    1.4598    0.0000 C   0  0  0  0  0  0  0  0  0  0  0  0
    4.2992    1.2298    0.0000 C   0  0  0  0  0  0  0  0  0  0  0  0
  1  6  2  0  0  0  0
  2  8  2  0  0  0  0
  3  6  1  0  0  0  0
  3  8  1  0  0  0  0
  3  9  1  0  0  0  0
  4  5  1  0  0  0  0
  4  6  1  0  0  0  0
  4  7  1  0  0  0  0
  5  8  1  0  0  0  0
M  END
$$$$
[Ga+3]
 OpenBabel07182308452D

  1  0  0  0  0  0  0  0  0  0999 V2000
    3.5872    0.4125    0.0000 Ga  0  1  0  0  0 15  0  0  0  0  0  0
M  CHG  1   1   3
M  END
$$$$
[O-][N+](=O)[O-]
 OpenBabel07182308452D

  4  3  0  0  0  0  0  0  0  0999 V2000
    1.4290    1.2375    0.0000 O   0  5  0  0  0  0  0  0  0  0  0  0
    0.0000    1.2375    0.0000 O   0  5  0  0  0  0  0  0  0  0  0  0
    0.7144    0.0000    0.0000 O   0  0  0  0  0  0  0  0  0  0  0  0
    0.7144    0.8250    0.0000 N   0  3  0  0  0  0  0  0  0  0  0  0
  1  4  1  0  0  0  0
  2  4  1  0  0  0  0
  3  4  2  0  0  0  0
M  CHG  3   1  -1   2  -1   4   1
M  END
$$$$
N[C@H]1CCc2c(C1)cccc2O
 OpenBabel07182308452D

 13 14  0  0  0  0  0  0  0  0999 V2000
   -2.7593   -1.8523    0.0000 O   0  0  0  0  0  0  0  0  0  0  0  0
    0.0834    0.6151    0.0000 N   0  0  0  0  0  0  0  0  0  0  0  0
   -2.0435   -0.6151    0.0000 C   0  0  0  0  0  0  0  0  0  0  0  0
   -2.0435    0.2119    0.0000 C   0  0  0  0  0  0  0  0  0  0  0  0
   -0.6185    0.2119    0.0000 C   0  0  2  0  0  0  0  0  0  0  0  0
   -1.3345    0.6220    0.0000 C   0  0  0  0  0  0  0  0  0  0  0  0
   -2.7593   -1.0252    0.0000 C   0  0  0  0  0  0  0  0  0  0  0  0
   -1.3345   -1.0252    0.0000 C   0  0  0  0  0  0  0  0  0  0  0  0
   -0.6185   -0.6151    0.0000 C   0  0  0  0  0  0  0  0  0  0  0  0
   -2.7593    0.6220    0.0000 C   0  0  0  0  0  0  0  0  0  0  0  0
   -3.4752   -0.6151    0.0000 C   0  0  0  0  0  0  0  0  0  0  0  0
   -3.4752    0.2119    0.0000 C   0  0  0  0  0  0  0  0  0  0  0  0
   -3.5708   -2.3208    0.0000 H   0  0  0  0  0  0  0  0  0  0  0  0
  1  7  1  0  0  0  0
  1 13  1  0  0  0  0
  3  4  1  0  0  0  0
  3  7  2  0  0  0  0
  3  8  1  0  0  0  0
  4  6  1  0  0  0  0
  4 10  2  0  0  0  0
  5  2  1  1  0  0  0
  5  6  1  0  0  0  0
  5  9  1  0  0  0  0
  7 11  1  0  0  0  0
  8  9  1  0  0  0  0
 10 12  1  0  0  0  0
 11 12  2  0  0  0  0
M  END
$$$$
[O-]P(=O)(O)C
 OpenBabel07182308452D

  6  5  0  0  0  0  0  0  0  0999 V2000
    2.2539   -3.3000    0.0000 C   0  0  0  0  0  0  0  0  0  0  0  0
    1.5395   -3.7125    0.0000 P   0  0  3  0  0  0  0  0  0  0  0  0
    1.1270   -2.9980    0.0000 O   0  0  0  0  0  0  0  0  0  0  0  0
    1.9520   -4.4270    0.0000 O   0  0  0  0  0  0  0  0  0  0  0  0
    0.8250   -4.1250    0.0000 O   0  5  0  0  0  0  0  0  0  0  0  0
    1.4670   -5.2670    0.0000 H   0  0  0  0  0  0  0  0  0  0  0  0
  1  2  1  0  0  0  0
  2  3  2  0  0  0  0
  2  4  1  0  0  0  0
  2  5  1  0  0  0  0
  4  6  1  0  0  0  0
M  CHG  1   5  -1
M  END
$$$$
[153Sm+3]
 OpenBabel07182308452D

  1  0  0  0  0  0  0  0  0  0999 V2000
    0.1105   -4.5375    0.0000 Sm  0  1  0  0  0 15  0  0  0  0  0  0
M  ISO  1   1 153
M  CHG  1   1   3
M  END
$$$$
Oc1ccc2c(c1)ncnc2N
 OpenBabel07182308452D

 13 14  0  0  0  0  0  0  0  0999 V2000
    5.7209   -2.8930    0.0000 C   0  0  0  0  0  0  0  0  0  0  0  0
    6.4372   -2.4744    0.0000 C   0  0  0  0  0  0  0  0  0  0  0  0
    5.7209   -3.7116    0.0000 C   0  0  0  0  0  0  0  0  0  0  0  0
    6.4372   -1.6465    0.0000 N   0  0  0  0  0  0  0  0  0  0  0  0
    5.0139   -2.4744    0.0000 C   0  0  0  0  0  0  0  0  0  0  0  0
    7.1535   -2.8930    0.0000 N   0  0  0  0  0  0  0  0  0  0  0  0
    5.0139   -4.1209    0.0000 C   0  0  0  0  0  0  0  0  0  0  0  0
    4.2976   -3.7116    0.0000 C   0  0  0  0  0  0  0  0  0  0  0  0
    4.2976   -2.8930    0.0000 C   0  0  0  0  0  0  0  0  0  0  0  0
    6.4372   -4.1209    0.0000 N   0  0  0  0  0  0  0  0  0  0  0  0
    7.1535   -3.7116    0.0000 C   0  0  0  0  0  0  0  0  0  0  0  0
    3.5814   -4.1302    0.0000 O   0  0  0  0  0  0  0  0  0  0  0  0
    5.5868   -1.1505    0.0000 H   0  0  0  0  0  0  0  0  0  0  0  0
  1  2  1  0  0  0  0
  1  3  1  0  0  0  0
  1  5  2  0  0  0  0
  2  4  1  0  0  0  0
  2  6  2  0  0  0  0
  3  7  2  0  0  0  0
  3 10  1  0  0  0  0
  4 13  1  0  0  0  0
  5  9  1  0  0  0  0
  6 11  1  0  0  0  0
  7  8  1  0  0  0  0
  8  9  2  0  0  0  0
  8 12  1  0  0  0  0
 10 11  2  0  0  0  0
M  END
$$$$
Fc1cccc(c1)Br
 OpenBabel07182308452D

  8  8  0  0  0  0  0  0  0  0999 V2000
    7.1442   -1.2465    0.0000 C   0  0  0  0  0  0  0  0  0  0  0  0
    7.8604   -1.6465    0.0000 C   0  0  0  0  0  0  0  0  0  0  0  0
    8.5767   -1.2465    0.0000 C   0  0  0  0  0  0  0  0  0  0  0  0
    7.1442   -0.4093    0.0000 C   0  0  0  0  0  0  0  0  0  0  0  0
    8.5767   -0.4093    0.0000 C   0  0  0  0  0  0  0  0  0  0  0  0
    7.8604   -2.4744    0.0000 F   0  0  0  0  0  0  0  0  0  0  0  0
    7.8604    0.0000    0.0000 C   0  0  0  0  0  0  0  0  0  0  0  0
    9.3023    0.0000    0.0000 Br  0  0  0  0  0  0  0  0  0  0  0  0
  1  2  2  0  0  0  0
  1  4  1  0  0  0  0
  2  3  1  0  0  0  0
  2  6  1  0  0  0  0
  3  5  2  0  0  0  0
  4  7  2  0  0  0  0
  5  7  1  0  0  0  0
  5  8  1  0  0  0  0
M  END
$$$$
Cc1ccc(cc1)F
 OpenBabel07182308452D

  8  8  0  0  0  0  0  0  0  0999 V2000
    2.1433    1.4437    0.0000 C   0  0  0  0  0  0  0  0  0  0  0  0
    2.8577    1.0312    0.0000 C   0  0  0  0  0  0  0  0  0  0  0  0
    3.5723    1.4437    0.0000 C   0  0  0  0  0  0  0  0  0  0  0  0
    4.2867    1.0312    0.0000 C   0  0  0  0  0  0  0  0  0  0  0  0
    4.2867    0.2062    0.0000 C   0  0  0  0  0  0  0  0  0  0  0  0
    5.0013   -0.2062    0.0000 F   0  0  0  0  0  0  0  0  0  0  0  0
    3.5723   -0.2062    0.0000 C   0  0  0  0  0  0  0  0  0  0  0  0
    2.8577    0.2062    0.0000 C   0  0  0  0  0  0  0  0  0  0  0  0
  1  2  1  0  0  0  0
  2  3  2  0  0  0  0
  2  8  1  0  0  0  0
  3  4  1  0  0  0  0
  4  5  2  0  0  0  0
  5  6  1  0  0  0  0
  5  7  1  0  0  0  0
  7  8  2  0  0  0  0
M  END
$$$$
Cc1c(O)ccnc1C
 OpenBabel07182308452D

  9  9  0  0  0  0  0  0  0  0999 V2000
   -0.5795   -0.7697    0.0000 C   0  0  0  0  0  0  0  0  0  0  0  0
   -0.9920   -0.0552    0.0000 C   0  0  0  0  0  0  0  0  0  0  0  0
   -1.8170   -0.0552    0.0000 C   0  0  0  0  0  0  0  0  0  0  0  0
   -2.2295    0.6592    0.0000 C   0  0  0  0  0  0  0  0  0  0  0  0
   -1.8170    1.3736    0.0000 C   0  0  0  0  0  0  0  0  0  0  0  0
   -0.9920    1.3736    0.0000 N   0  0  0  0  0  0  0  0  0  0  0  0
   -0.5795    0.6592    0.0000 C   0  0  0  0  0  0  0  0  0  0  0  0
    0.2454    0.6592    0.0000 C   0  0  0  0  0  0  0  0  0  0  0  0
   -2.2295   -0.7697    0.0000 O   0  0  0  0  0  0  0  0  0  0  0  0
  1  2  1  0  0  0  0
  2  3  2  0  0  0  0
  2  7  1  0  0  0  0
  3  4  1  0  0  0  0
  3  9  1  0  0  0  0
  4  5  2  0  0  0  0
  5  6  1  0  0  0  0
  6  7  2  0  0  0  0
  7  8  1  0  0  0  0
M  END
$$$$
II
 OpenBabel07182308452D

  2  1  0  0  0  0  0  0  0  0999 V2000
    1.6500    0.0000    0.0000 I   0  0  0  0  0  0  0  0  0  0  0  0
    2.4750    0.0000    0.0000 I   0  0  0  0  0  0  0  0  0  0  0  0
  1  2  1  0  0  0  0
M  END
$$$$
[O-][Cl]=O
 OpenBabel07182308452D

  3  2  0  0  0  0  0  0  0  0999 V2000
    0.7145    0.0000    0.0000 Cl  0  0  0  0  0  0  0  0  0  0  0  0
    1.4290    0.4125    0.0000 O   0  5  0  0  0  0  0  0  0  0  0  0
    0.0000    0.4125    0.0000 O   0  0  0  0  0  0  0  0  0  0  0  0
  1  2  1  0  0  0  0
  1  3  2  0  0  0  0
M  CHG  1   2  -1
M  END
$$$$
O=O
 OpenBabel07182308452D

  2  1  0  0  0  0  0  0  0  0999 V2000
    1.1270    2.0625    0.0000 O   0  0  0  0  0  0  0  0  0  0  0  0
    0.3020    2.0625    0.0000 O   0  0  0  0  0  0  0  0  0  0  0  0
  1  2  2  0  0  0  0
M  END
$$$$
C[C@@H]1CC(=O)N(C1)C
 OpenBabel07182308452D

  8  8  0  0  1  0  0  0  0  0999 V2000
    4.5311   -0.2899    0.0000 O   0  0  0  0  0  0  0  0  0  0  0  0
    3.0791   -0.5199    0.0000 N   0  0  0  0  0  0  0  0  0  0  0  0
    2.6666    0.7496    0.0000 C   0  0  1  0  0  0  0  0  0  0  0  0
    2.4115   -0.0350    0.0000 C   0  0  0  0  0  0  0  0  0  0  0  0
    3.4916    0.7496    0.0000 C   0  0  0  0  0  0  0  0  0  0  0  0
    2.1816    1.4171    0.0000 C   0  0  0  0  0  0  0  0  0  0  0  0
    3.0791   -1.3450    0.0000 C   0  0  0  0  0  0  0  0  0  0  0  0
    3.7465   -0.0350    0.0000 C   0  0  0  0  0  0  0  0  0  0  0  0
  1  8  2  0  0  0  0
  2  4  1  0  0  0  0
  2  7  1  0  0  0  0
  2  8  1  0  0  0  0
  3  4  1  0  0  0  0
  3  5  1  0  0  0  0
  3  6  1  6  0  0  0
  5  8  1  0  0  0  0
M  END
$$$$
O[Sb]12(O)OCC(O2)CO1
 OpenBabel07182308452D

 12 13  0  0  1  0  0  0  0  0999 V2000
    5.2470  -17.8073    0.0000 Sb  0  0  0  0  0  0  0  0  0  0  0  0
    5.2470  -18.6323    0.0000 O   0  0  0  0  0  0  0  0  0  0  0  0
    4.5325  -17.3948    0.0000 O   0  0  0  0  0  0  0  0  0  0  0  0
    4.5325  -19.0448    0.0000 C   0  0  0  0  0  0  0  0  0  0  0  0
    3.8180  -17.8073    0.0000 C   0  0  0  0  0  0  0  0  0  0  0  0
    3.8180  -18.6323    0.0000 C   0  0  3  0  0  0  0  0  0  0  0  0
    4.4531  -18.0309    0.0000 O   0  0  0  0  0  0  0  0  0  0  0  0
    3.1012  -19.0448    0.0000 H   0  0  0  0  0  0  0  0  0  0  0  0
    3.1012  -18.2198    0.0000 H   0  0  0  0  0  0  0  0  0  0  0  0
    5.9639  -17.4047    0.0000 O   0  0  0  0  0  0  0  0  0  0  0  0
    5.2482  -16.9872    0.0000 O   0  0  0  0  0  0  0  0  0  0  0  0
    6.0890  -16.5034    0.0000 H   0  0  0  0  0  0  0  0  0  0  0  0
  1  7  1  0  0  0  0
  1 10  1  0  0  0  0
  1 11  1  0  0  0  0
  2  1  1  0  0  0  0
  3  1  1  0  0  0  0
  4  2  1  0  0  0  0
  5  3  1  0  0  0  0
  5  9  1  0  0  0  0
  6  4  1  0  0  0  0
  6  5  1  0  0  0  0
  6  7  1  0  0  0  0
  6  8  1  0  0  0  0
 11 12  1  0  0  0  0
M  END
$$$$
[O-][SbH]12OCC(O2)CO1
 OpenBabel07182308452D

 10 11  0  0  1  0  0  0  0  0999 V2000
    6.6808  -17.8073    0.0000 Sb  0  0  0  0  0  0  0  0  0  0  0  0
    6.6808  -18.6323    0.0000 O   0  0  0  0  0  0  0  0  0  0  0  0
    7.3953  -17.3948    0.0000 O   0  0  0  0  0  0  0  0  0  0  0  0
    7.3953  -19.0448    0.0000 C   0  0  0  0  0  0  0  0  0  0  0  0
    8.1098  -17.8073    0.0000 C   0  0  0  0  0  0  0  0  0  0  0  0
    8.1098  -18.6323    0.0000 C   0  0  3  0  0  0  0  0  0  0  0  0
    7.4748  -18.0309    0.0000 O   0  0  0  0  0  0  0  0  0  0  0  0
    8.8266  -19.0448    0.0000 H   0  0  0  0  0  0  0  0  0  0  0  0
    8.8266  -18.2198    0.0000 H   0  0  0  0  0  0  0  0  0  0  0  0
    6.6796  -16.9872    0.0000 O   0  5  0  0  0  0  0  0  0  0  0  0
  1  7  1  0  0  0  0
  1 10  1  0  0  0  0
  2  1  1  0  0  0  0
  3  1  1  0  0  0  0
  4  2  1  0  0  0  0
  5  3  1  0  0  0  0
  5  9  1  0  0  0  0
  6  4  1  0  0  0  0
  6  5  1  0  0  0  0
  6  7  1  0  0  0  0
  6  8  1  0  0  0  0
M  CHG  1  10  -1
M  END
$$$$
C[C@H]1OC[C@H](O1)C
 OpenBabel07182308452D

  7  7  0  0  1  0  0  0  0  0999 V2000
   10.7746   -7.3336    0.0000 C   0  0  0  0  0  0  0  0  0  0  0  0
   10.3621   -6.6191    0.0000 C   0  0  2  0  0  0  0  0  0  0  0  0
   10.6977   -5.8654    0.0000 C   0  0  0  0  0  0  0  0  0  0  0  0
   10.0848   -5.3134    0.0000 O   0  0  0  0  0  0  0  0  0  0  0  0
    9.3703   -5.7259    0.0000 C   0  0  2  0  0  0  0  0  0  0  0  0
    8.8853   -5.0585    0.0000 C   0  0  0  0  0  0  0  0  0  0  0  0
    9.5415   -6.5328    0.0000 O   0  0  0  0  0  0  0  0  0  0  0  0
  2  1  1  1  0  0  0
  2  3  1  0  0  0  0
  2  7  1  0  0  0  0
  3  4  1  0  0  0  0
  4  5  1  0  0  0  0
  5  6  1  1  0  0  0
  5  7  1  0  0  0  0
M  END
$$$$
Nc1cccc2c1C(=O)N(C2=O)C
 OpenBabel07182308452D

 14 15  0  0  0  0  0  0  0  0999 V2000
   -0.9505    1.4789    0.0000 C   0  0  0  0  0  0  0  0  0  0  0  0
   -0.9505    0.6539    0.0000 C   0  0  0  0  0  0  0  0  0  0  0  0
   -0.1659    0.3990    0.0000 C   0  0  0  0  0  0  0  0  0  0  0  0
    0.3189    1.0664    0.0000 N   0  0  0  0  0  0  0  0  0  0  0  0
   -0.1659    1.7338    0.0000 C   0  0  0  0  0  0  0  0  0  0  0  0
    0.0867    2.5114    0.0000 O   0  0  0  0  0  0  0  0  0  0  0  0
    0.0867   -0.3786    0.0000 O   0  0  0  0  0  0  0  0  0  0  0  0
   -1.6651    1.8914    0.0000 C   0  0  0  0  0  0  0  0  0  0  0  0
   -2.3795    1.4789    0.0000 C   0  0  0  0  0  0  0  0  0  0  0  0
   -2.3795    0.6539    0.0000 C   0  0  0  0  0  0  0  0  0  0  0  0
   -1.6651    0.2414    0.0000 C   0  0  0  0  0  0  0  0  0  0  0  0
   -1.6651   -0.5834    0.0000 N   0  0  0  0  0  0  0  0  0  0  0  0
    1.1531    1.0664    0.0000 C   0  0  0  0  0  0  0  0  0  0  0  0
   -0.8125   -1.0756    0.0000 H   0  0  0  0  0  0  0  0  0  0  0  0
  1  2  1  0  0  0  0
  1  5  1  0  0  0  0
  1  8  2  0  0  0  0
  2  3  1  0  0  0  0
  2 11  2  0  0  0  0
  3  4  1  0  0  0  0
  3  7  2  0  0  0  0
  4  5  1  0  0  0  0
  4 13  1  0  0  0  0
  5  6  2  0  0  0  0
  8  9  1  0  0  0  0
  9 10  2  0  0  0  0
 10 11  1  0  0  0  0
 11 12  1  0  0  0  0
 12 14  1  0  0  0  0
M  END
$$$$
O[C@H]1CC[C@]2(C(=CC[C@@H]3[C@@H]2CC[C@]2([C@H]3CC=C2)C)C1)C
 OpenBabel07182308452D

 24 27  0  0  1  0  0  0  0  0999 V2000
   12.5273   -9.5171    0.0000 C   0  0  0  0  0  0  0  0  0  0  0  0
   12.5273  -10.3421    0.0000 C   0  0  1  0  0  0  0  0  0  0  0  0
   13.2417  -10.7546    0.0000 C   0  0  0  0  0  0  0  0  0  0  0  0
   13.9563  -10.3421    0.0000 C   0  0  0  0  0  0  0  0  0  0  0  0
   13.9563   -9.5171    0.0000 C   0  0  2  0  0  0  0  0  0  0  0  0
   13.2417   -9.1046    0.0000 C   0  0  0  0  0  0  0  0  0  0  0  0
   14.6707  -10.7546    0.0000 C   0  0  0  0  0  0  0  0  0  0  0  0
   15.3851  -10.3421    0.0000 C   0  0  0  0  0  0  0  0  0  0  0  0
   15.3851   -9.5171    0.0000 C   0  0  2  0  0  0  0  0  0  0  0  0
   14.6707   -9.1046    0.0000 C   0  0  2  0  0  0  0  0  0  0  0  0
   15.3851   -7.8671    0.0000 C   0  0  0  0  0  0  0  0  0  0  0  0
   14.6707   -8.2796    0.0000 C   0  0  0  0  0  0  0  0  0  0  0  0
   11.8128  -10.7546    0.0000 O   0  0  0  0  0  0  0  0  0  0  0  0
   13.9563   -8.6921    0.0000 C   0  0  0  0  0  0  0  0  0  0  0  0
   14.6707   -9.9296    0.0000 H   0  0  0  0  0  0  0  0  0  0  0  0
   15.3851   -8.6921    0.0000 H   0  0  0  0  0  0  0  0  0  0  0  0
   16.0996   -7.4546    0.0000 C   0  0  0  0  0  0  0  0  0  0  0  0
   16.0996   -9.9296    0.0000 H   0  0  0  0  0  0  0  0  0  0  0  0
   16.8843   -8.0246    0.0000 C   0  0  0  0  0  0  0  0  0  0  0  0
   16.0996   -8.2796    0.0000 C   0  0  2  0  0  0  0  0  0  0  0  0
   16.0996   -9.1046    0.0000 C   0  0  1  0  0  0  0  0  0  0  0  0
   16.8843   -9.3596    0.0000 C   0  0  0  0  0  0  0  0  0  0  0  0
   17.3692   -8.6922    0.0000 C   0  0  0  0  0  0  0  0  0  0  0  0
   10.9728  -10.2696    0.0000 H   0  0  0  0  0  0  0  0  0  0  0  0
  1  2  1  0  0  0  0
  1  6  1  0  0  0  0
  2  3  1  0  0  0  0
  2 13  1  1  0  0  0
  3  4  1  0  0  0  0
  4  5  1  0  0  0  0
  4  7  2  0  0  0  0
  5  6  1  0  0  0  0
  5 10  1  6  0  0  0
  5 14  1  0  0  0  0
  7  8  1  0  0  0  0
  8  9  1  0  0  0  0
  9 10  1  6  0  0  0
  9 16  1  0  0  0  0
 10 12  1  0  0  0  0
 10 15  1  6  0  0  0
 11 12  1  0  0  0  0
 13 24  1  0  0  0  0
 19 20  1  0  0  0  0
 19 23  2  0  0  0  0
 20 11  1  0  0  0  0
 20 17  1  0  0  0  0
 20 21  1  1  0  0  0
 21  9  1  1  0  0  0
 21 18  1  0  0  0  0
 21 22  1  0  0  0  0
 22 23  1  0  0  0  0
M  END
$$$$
O[C@@H]1CC[C@]2([C@@H](C1)C[C@H]([C@@H]1[C@@H]2CC[C@]2([C@H]1CCC2)C)O)C
 OpenBabel07182308452D

 28 31  0  0  0  0  0  0  0  0999 V2000
   -2.5357   -0.1274    0.0000 C   0  0  0  0  0  0  0  0  0  0  0  0
   -3.2502   -0.5399    0.0000 C   0  0  0  0  0  0  0  0  0  0  0  0
   -2.5357   -1.7774    0.0000 C   0  0  0  0  0  0  0  0  0  0  0  0
   -1.1067   -1.7774    0.0000 C   0  0  0  0  0  0  0  0  0  0  0  0
   -1.8212   -0.5399    0.0000 C   0  0  2  0  0  0  0  0  0  0  0  0
   -1.1067    0.6975    0.0000 C   0  0  0  0  0  0  0  0  0  0  0  0
   -0.3923    1.1100    0.0000 C   0  0  0  0  0  0  0  0  0  0  0  0
    1.1067   -0.3823    0.0000 C   0  0  0  0  0  0  0  0  0  0  0  0
    1.5917    0.2850    0.0000 C   0  0  0  0  0  0  0  0  0  0  0  0
   -1.8212    0.2850    0.0000 C   0  0  0  0  0  0  0  0  0  0  0  0
   -1.1067   -0.1274    0.0000 C   0  0  1  0  0  0  0  0  0  0  0  0
   -1.1067   -0.9524    0.0000 H   0  0  0  0  0  0  0  0  0  0  0  0
   -0.3923   -0.5399    0.0000 C   0  0  2  0  0  0  0  0  0  0  0  0
   -0.3923    0.2850    0.0000 H   0  0  0  0  0  0  0  0  0  0  0  0
    0.3221   -0.1274    0.0000 C   0  0  1  0  0  0  0  0  0  0  0  0
    0.3221    0.6975    0.0000 C   0  0  2  0  0  0  0  0  0  0  0  0
    0.3221    1.5225    0.0000 C   0  0  0  0  0  0  0  0  0  0  0  0
    0.3221   -0.9524    0.0000 H   0  0  0  0  0  0  0  0  0  0  0  0
    1.1067    0.9524    0.0000 C   0  0  0  0  0  0  0  0  0  0  0  0
    1.8212    1.3649    0.0000 H   0  0  0  0  0  0  0  0  0  0  0  0
   -3.2502   -1.3650    0.0000 C   0  0  2  0  0  0  0  0  0  0  0  0
   -3.9646   -1.7774    0.0000 O   0  0  0  0  0  0  0  0  0  0  0  0
   -0.3923   -1.3650    0.0000 C   0  0  2  0  0  0  0  0  0  0  0  0
    0.3221   -1.7774    0.0000 O   0  0  0  0  0  0  0  0  0  0  0  0
   -1.8212   -1.3650    0.0000 C   0  0  1  0  0  0  0  0  0  0  0  0
   -1.8212   -2.1899    0.0000 H   0  0  0  0  0  0  0  0  0  0  0  0
   -4.8046   -1.2923    0.0000 H   0  0  0  0  0  0  0  0  0  0  0  0
    0.3222   -2.7474    0.0000 H   0  0  0  0  0  0  0  0  0  0  0  0
  2  1  1  0  0  0  0
  4 23  1  0  0  0  0
  5 11  1  6  0  0  0
  5 10  1  0  0  0  0
  5  1  1  0  0  0  0
  6  7  1  0  0  0  0
  9  8  1  0  0  0  0
 11  6  1  0  0  0  0
 11 13  1  1  0  0  0
 11 12  1  0  0  0  0
 13 15  1  6  0  0  0
 13 14  1  0  0  0  0
 15 16  1  6  0  0  0
 15  8  1  0  0  0  0
 15 18  1  0  0  0  0
 16 19  1  0  0  0  0
 16  7  1  0  0  0  0
 16 17  1  1  0  0  0
 19  9  1  0  0  0  0
 19 20  1  0  0  0  0
 21  3  1  0  0  0  0
 21  2  1  0  0  0  0
 21 22  1  6  0  0  0
 22 27  1  0  0  0  0
 23 13  1  6  0  0  0
 23 24  1  0  0  0  0
 24 28  1  0  0  0  0
 25  5  1  1  0  0  0
 25  3  1  0  0  0  0
 25  4  1  0  0  0  0
 25 26  1  0  0  0  0
M  END
$$$$
C[C@@H]1CC[C@H](CC1)N
 OpenBabel07182308452D

  9  9  0  0  0  0  0  0  0  0999 V2000
   -2.5368    0.4331    0.0000 C   0  0  0  0  0  0  0  0  0  0  0  0
   -2.5368    1.2581    0.0000 C   0  0  2  0  0  0  0  0  0  0  0  0
   -1.7943    1.6706    0.0000 C   0  0  0  0  0  0  0  0  0  0  0  0
   -1.0931    1.2581    0.0000 C   0  0  0  0  0  0  0  0  0  0  0  0
   -1.0931    0.4331    0.0000 C   0  0  1  0  0  0  0  0  0  0  0  0
   -1.7943    0.0206    0.0000 C   0  0  0  0  0  0  0  0  0  0  0  0
   -0.3506    0.0206    0.0000 C   0  0  0  0  0  0  0  0  0  0  0  0
   -3.2381    1.6706    0.0000 N   0  0  0  0  0  0  0  0  0  0  0  0
   -3.2381    2.6551    0.0000 H   0  0  0  0  0  0  0  0  0  0  0  0
  1  2  1  0  0  0  0
  1  6  1  0  0  0  0
  2  3  1  0  0  0  0
  2  8  1  1  0  0  0
  3  4  1  0  0  0  0
  4  5  1  0  0  0  0
  5  6  1  0  0  0  0
  5  7  1  6  0  0  0
  8  9  1  0  0  0  0
M  END
$$$$
CN1CCN2c3c1cccc3[C@H]1[C@@H]2CCNC1
 OpenBabel07182308452D

 19 22  0  0  0  0  0  0  0  0999 V2000
    0.5074   -0.1399    0.0000 N   0  0  0  0  0  0  0  0  0  0  0  0
    1.2220   -0.5524    0.0000 C   0  0  0  0  0  0  0  0  0  0  0  0
    1.9364   -0.1399    0.0000 C   0  0  1  0  0  0  0  0  0  0  0  0
    1.9604   -0.9788    0.0000 H   0  0  0  0  0  0  0  0  0  0  0  0
    2.7333   -0.3534    0.0000 C   0  0  0  0  0  0  0  0  0  0  0  0
    3.1457   -1.0679    0.0000 C   0  0  0  0  0  0  0  0  0  0  0  0
    3.9708   -1.0679    0.0000 C   0  0  0  0  0  0  0  0  0  0  0  0
    4.3833   -0.3534    0.0000 C   0  0  0  0  0  0  0  0  0  0  0  0
    3.9709    0.3609    0.0000 C   0  0  0  0  0  0  0  0  0  0  0  0
    3.1457    0.3609    0.0000 C   0  0  0  0  0  0  0  0  0  0  0  0
    2.7333    1.0755    0.0000 N   0  0  0  0  0  0  0  0  0  0  0  0
    1.9364    0.6850    0.0000 C   0  0  1  0  0  0  0  0  0  0  0  0
    1.9644    1.5095    0.0000 H   0  0  0  0  0  0  0  0  0  0  0  0
    1.2220    1.0975    0.0000 C   0  0  0  0  0  0  0  0  0  0  0  0
    0.5074    0.6850    0.0000 C   0  0  0  0  0  0  0  0  0  0  0  0
    3.1457    1.7899    0.0000 C   0  0  0  0  0  0  0  0  0  0  0  0
    3.9708    1.7899    0.0000 C   0  0  0  0  0  0  0  0  0  0  0  0
    4.3834    1.0755    0.0000 N   0  0  0  0  0  0  0  0  0  0  0  0
    5.2084    1.0755    0.0000 C   0  0  0  0  0  0  0  0  0  0  0  0
  2  1  1  0  0  0  0
  2  3  1  0  0  0  0
  3  4  1  0  0  0  0
  3  5  1  0  0  0  0
  3 12  1  1  0  0  0
  5  6  2  0  0  0  0
  6  7  1  0  0  0  0
  7  8  2  0  0  0  0
  8  9  1  0  0  0  0
 10  9  2  0  0  0  0
 10  5  1  0  0  0  0
 11 10  1  0  0  0  0
 12 11  1  0  0  0  0
 12 13  1  1  0  0  0
 14 12  1  0  0  0  0
 14 15  1  0  0  0  0
 15  1  1  0  0  0  0
 16 11  1  0  0  0  0
 17 16  1  0  0  0  0
 18 17  1  0  0  0  0
 18 19  1  0  0  0  0
 18  9  1  0  0  0  0
M  END
$$$$
O=C1NCCN1C
 OpenBabel07182308452D

  8  8  0  0  0  0  0  0  0  0999 V2000
    8.1145    3.3560    0.0000 O   0  0  0  0  0  0  0  0  0  0  0  0
    6.6628    3.5885    0.0000 N   0  0  0  0  0  0  0  0  0  0  0  0
    7.4493    4.6672    0.0000 N   0  0  0  0  0  0  0  0  0  0  0  0
    6.4066    2.8044    0.0000 C   0  0  0  0  0  0  0  0  0  0  0  0
    6.1791    4.2569    0.0000 C   0  0  0  0  0  0  0  0  0  0  0  0
    6.6652    4.9235    0.0000 C   0  0  0  0  0  0  0  0  0  0  0  0
    7.4479    3.8421    0.0000 C   0  0  0  0  0  0  0  0  0  0  0  0
    8.2468    5.2445    0.0000 H   0  0  0  0  0  0  0  0  0  0  0  0
  1  7  2  0  0  0  0
  2  4  1  0  0  0  0
  2  5  1  0  0  0  0
  2  7  1  0  0  0  0
  3  6  1  0  0  0  0
  3  7  1  0  0  0  0
  3  8  1  0  0  0  0
  5  6  1  0  0  0  0
M  END
$$$$
Clc1ccc2c(c1)cc[nH]2
 OpenBabel07182308452D

 10 11  0  0  0  0  0  0  0  0999 V2000
    1.6500   -0.3414    0.0000 Cl  0  0  0  0  0  0  0  0  0  0  0  0
    4.5741   -1.8304    0.0000 N   0  0  0  0  0  0  0  0  0  0  0  0
    4.5741   -0.5025    0.0000 C   0  0  0  0  0  0  0  0  0  0  0  0
    3.7935   -0.7539    0.0000 C   0  0  0  0  0  0  0  0  0  0  0  0
    5.0556   -1.1664    0.0000 C   0  0  0  0  0  0  0  0  0  0  0  0
    3.7935   -1.5789    0.0000 C   0  0  0  0  0  0  0  0  0  0  0  0
    3.0790   -0.3414    0.0000 C   0  0  0  0  0  0  0  0  0  0  0  0
    3.0790   -1.9914    0.0000 C   0  0  0  0  0  0  0  0  0  0  0  0
    2.3645   -0.7539    0.0000 C   0  0  0  0  0  0  0  0  0  0  0  0
    2.3645   -1.5789    0.0000 C   0  0  0  0  0  0  0  0  0  0  0  0
  1  9  1  0  0  0  0
  2  5  1  0  0  0  0
  2  6  1  0  0  0  0
  3  4  1  0  0  0  0
  3  5  2  0  0  0  0
  4  6  2  0  0  0  0
  4  7  1  0  0  0  0
  6  8  1  0  0  0  0
  7  9  2  0  0  0  0
  8 10  2  0  0  0  0
  9 10  1  0  0  0  0
M  END
$$$$
C[C@@H]1CCC[C@@H](O1)O
 OpenBabel07182308452D

  9  9  0  0  1  0  0  0  0  0999 V2000
   -2.9735    2.2036    0.0000 C   0  0  2  0  0  0  0  0  0  0  0  0
   -3.6952    1.8014    0.0000 H   0  0  0  0  0  0  0  0  0  0  0  0
   -2.2886    2.6693    0.0000 O   0  0  0  0  0  0  0  0  0  0  0  0
   -2.3471    3.4898    0.0000 C   0  0  1  0  0  0  0  0  0  0  0  0
   -3.0894    3.8516    0.0000 C   0  0  0  0  0  0  0  0  0  0  0  0
   -3.7700    3.3953    0.0000 C   0  0  0  0  0  0  0  0  0  0  0  0
   -3.7174    2.5679    0.0000 C   0  0  0  0  0  0  0  0  0  0  0  0
   -1.6324    3.9150    0.0000 C   0  0  0  0  0  0  0  0  0  0  0  0
   -3.0939    1.4361    0.0000 O   0  0  0  0  0  0  0  0  0  0  0  0
  1  2  1  6  0  0  0
  1  3  1  0  0  0  0
  1  7  1  0  0  0  0
  1  9  1  0  0  0  0
  3  4  1  0  0  0  0
  4  5  1  0  0  0  0
  4  8  1  1  0  0  0
  5  6  1  0  0  0  0
  6  7  1  0  0  0  0
M  END
$$$$
C[C@H]1C/C=C/C=C/C[C@@H](C)OC(=O)C[C@H](C[C@H]([C@H](C1)C)O)O
 OpenBabel07182308452D

 23 23  0  0  1  0  0  0  0  0999 V2000
   -2.6255    0.4440    0.0000 C   0  0  0  0  0  0  0  0  0  0  0  0
   -1.9190    0.0383    0.0000 C   0  0  1  0  0  0  0  0  0  0  0  0
   -1.9190   -0.7738    0.0000 C   0  0  0  0  0  0  0  0  0  0  0  0
   -1.2114   -1.1865    0.0000 C   0  0  1  0  0  0  0  0  0  0  0  0
   -1.2114   -2.0108    0.0000 C   0  0  1  0  0  0  0  0  0  0  0  0
   -1.9143   -2.4121    0.0000 C   0  0  0  0  0  0  0  0  0  0  0  0
   -1.9143   -3.2371    0.0000 C   0  0  1  0  0  0  0  0  0  0  0  0
   -2.6358   -3.6522    0.0000 C   0  0  0  0  0  0  0  0  0  0  0  0
   -3.3485   -3.2303    0.0000 C   0  0  0  0  0  0  0  0  0  0  0  0
   -4.0565   -3.6468    0.0000 O   0  0  0  0  0  0  0  0  0  0  0  0
   -4.7682   -3.2303    0.0000 C   0  0  2  0  0  0  0  0  0  0  0  0
   -5.4896   -3.6468    0.0000 C   0  0  0  0  0  0  0  0  0  0  0  0
   -4.7682   -2.4026    0.0000 C   0  0  0  0  0  0  0  0  0  0  0  0
   -4.0565   -1.9910    0.0000 C   0  0  0  0  0  0  0  0  0  0  0  0
   -4.0565   -1.1657    0.0000 C   0  0  0  0  0  0  0  0  0  0  0  0
   -3.3367   -0.7742    0.0000 C   0  0  0  0  0  0  0  0  0  0  0  0
   -3.3367    0.0447    0.0000 C   0  0  0  0  0  0  0  0  0  0  0  0
   -3.3485   -2.3981    0.0000 O   0  0  0  0  0  0  0  0  0  0  0  0
   -1.2022   -3.6560    0.0000 O   0  0  0  0  0  0  0  0  0  0  0  0
   -0.4084   -2.2669    0.0000 O   0  0  0  0  0  0  0  0  0  0  0  0
   -0.6287   -0.6035    0.0000 C   0  0  0  0  0  0  0  0  0  0  0  0
   -1.3364    0.6175    0.0000 C   0  0  0  0  0  0  0  0  0  0  0  0
   -1.2101   -4.6260    0.0000 H   0  0  0  0  0  0  0  0  0  0  0  0
  1 17  1  0  0  0  0
  2  1  1  0  0  0  0
  2 22  1  6  0  0  0
  3  2  1  0  0  0  0
  4  3  1  0  0  0  0
  4 21  1  6  0  0  0
  5  4  1  0  0  0  0
  5 20  1  6  0  0  0
  6  5  1  0  0  0  0
  7  6  1  0  0  0  0
  7 19  1  6  0  0  0
  8  7  1  0  0  0  0
  9  8  1  0  0  0  0
  9 18  2  0  0  0  0
 10  9  1  0  0  0  0
 11 10  1  0  0  0  0
 11 12  1  6  0  0  0
 13 11  1  0  0  0  0
 13 14  1  0  0  0  0
 14 15  2  0  0  0  0
 16 15  1  0  0  0  0
 17 16  2  0  0  0  0
 19 23  1  0  0  0  0
M  END
$$$$
O[C@H]1CO[C@@H]([C@H](C1)O)C
 OpenBabel07182308452D

 11 11  0  0  1  0  0  0  0  0999 V2000
    0.4140   -2.2669    0.0000 C   0  0  0  0  0  0  0  0  0  0  0  0
    0.7910   -3.0046    0.0000 O   0  0  0  0  0  0  0  0  0  0  0  0
    1.6138   -3.0516    0.0000 C   0  0  1  0  0  0  0  0  0  0  0  0
    2.0667   -2.3539    0.0000 C   0  0  2  0  0  0  0  0  0  0  0  0
    1.6992   -1.6163    0.0000 C   0  0  0  0  0  0  0  0  0  0  0  0
    0.8694   -1.5672    0.0000 C   0  0  1  0  0  0  0  0  0  0  0  0
    0.3191   -0.9428    0.0000 O   0  0  0  0  0  0  0  0  0  0  0  0
    2.8983   -2.3539    0.0000 O   0  0  0  0  0  0  0  0  0  0  0  0
    2.1592   -3.6706    0.0000 C   0  0  0  0  0  0  0  0  0  0  0  0
   -0.0043   -2.9761    0.0000 H   0  0  0  0  0  0  0  0  0  0  0  0
    0.6286   -0.0235    0.0000 H   0  0  0  0  0  0  0  0  0  0  0  0
  1  2  1  0  0  0  0
  1  6  1  0  0  0  0
  1 10  1  0  0  0  0
  2  3  1  0  0  0  0
  3  4  1  0  0  0  0
  3  9  1  1  0  0  0
  4  5  1  0  0  0  0
  4  8  1  6  0  0  0
  5  6  1  0  0  0  0
  6  7  1  6  0  0  0
  7 11  1  0  0  0  0
M  END
$$$$
C[C@@H]1OCC[C@@]([C@H]1O)(C)O
 OpenBabel07182308452D

 13 13  0  0  1  0  0  0  0  0999 V2000
    3.4461   -3.0183    0.0000 C   0  0  0  0  0  0  0  0  0  0  0  0
    3.1831   -3.8064    0.0000 O   0  0  0  0  0  0  0  0  0  0  0  0
    3.8120   -4.4998    0.0000 C   0  0  2  0  0  0  0  0  0  0  0  0
    4.5372   -4.2623    0.0000 C   0  0  1  0  0  0  0  0  0  0  0  0
    4.8047   -3.4791    0.0000 C   0  0  1  0  0  0  0  0  0  0  0  0
    4.2584   -2.8515    0.0000 C   0  0  0  0  0  0  0  0  0  0  0  0
    5.4121   -2.9173    0.0000 O   0  0  0  0  0  0  0  0  0  0  0  0
    5.4896   -3.9272    0.0000 C   0  0  0  0  0  0  0  0  0  0  0  0
    5.0891   -4.8785    0.0000 O   0  0  0  0  0  0  0  0  0  0  0  0
    3.6217   -5.1037    0.0000 C   0  0  0  0  0  0  0  0  0  0  0  0
    3.7019   -2.2314    0.0000 H   0  0  0  0  0  0  0  0  0  0  0  0
    6.3386   -3.2047    0.0000 H   0  0  0  0  0  0  0  0  0  0  0  0
    4.7869   -5.8002    0.0000 H   0  0  0  0  0  0  0  0  0  0  0  0
  1  2  1  0  0  0  0
  1  6  1  0  0  0  0
  1 11  1  0  0  0  0
  2  3  1  0  0  0  0
  3  4  1  0  0  0  0
  3 10  1  6  0  0  0
  4  5  1  1  0  0  0
  4  9  1  0  0  0  0
  5  6  1  0  0  0  0
  5  7  1  0  0  0  0
  5  8  1  6  0  0  0
  7 12  1  0  0  0  0
  9 13  1  0  0  0  0
M  END
$$$$
CN1CCN2C(C1)c1ccccc1Cc1c2cccc1
 OpenBabel07182308452D

 20 23  0  0  1  0  0  0  0  0999 V2000
    3.5989   -0.6297    0.0000 N   0  0  0  0  0  0  0  0  0  0  0  0
    2.2518   -1.5635    0.0000 N   0  0  0  0  0  0  0  0  0  0  0  0
    2.8852   -0.2861    0.0000 C   0  0  3  0  0  0  0  0  0  0  0  0
    2.1965   -0.7403    0.0000 C   0  0  0  0  0  0  0  0  0  0  0  0
    3.6732   -1.4514    0.0000 C   0  0  0  0  0  0  0  0  0  0  0  0
    2.7090    0.4861    0.0000 C   0  0  0  0  0  0  0  0  0  0  0  0
    2.9951   -1.9214    0.0000 C   0  0  0  0  0  0  0  0  0  0  0  0
    4.3124   -0.2861    0.0000 C   0  0  0  0  0  0  0  0  0  0  0  0
    3.2028    1.1053    0.0000 C   0  0  0  0  0  0  0  0  0  0  0  0
    3.9949    1.1053    0.0000 C   0  0  0  0  0  0  0  0  0  0  0  0
    4.4887    0.4861    0.0000 C   0  0  0  0  0  0  0  0  0  0  0  0
    1.5957   -2.0071    0.0000 C   0  0  0  0  0  0  0  0  0  0  0  0
    1.8914    0.5964    0.0000 C   0  0  0  0  0  0  0  0  0  0  0  0
    4.9085   -0.8565    0.0000 C   0  0  0  0  0  0  0  0  0  0  0  0
    2.9133    1.8778    0.0000 C   0  0  0  0  0  0  0  0  0  0  0  0
    5.2732    0.7413    0.0000 C   0  0  0  0  0  0  0  0  0  0  0  0
    1.5841    1.3621    0.0000 C   0  0  0  0  0  0  0  0  0  0  0  0
    2.0984    2.0071    0.0000 C   0  0  0  0  0  0  0  0  0  0  0  0
    5.6987   -0.6195    0.0000 C   0  0  0  0  0  0  0  0  0  0  0  0
    5.8823    0.1849    0.0000 C   0  0  0  0  0  0  0  0  0  0  0  0
  1  3  1  0  0  0  0
  1  5  1  0  0  0  0
  1  8  1  0  0  0  0
  2  4  1  0  0  0  0
  2  7  1  0  0  0  0
  2 12  1  0  0  0  0
  3  4  1  0  0  0  0
  3  6  1  0  0  0  0
  5  7  1  0  0  0  0
  6  9  1  0  0  0  0
  6 13  2  0  0  0  0
  8 11  1  0  0  0  0
  8 14  2  0  0  0  0
  9 10  1  0  0  0  0
  9 15  2  0  0  0  0
 10 11  1  0  0  0  0
 11 16  2  0  0  0  0
 13 17  1  0  0  0  0
 14 19  1  0  0  0  0
 15 18  1  0  0  0  0
 16 20  1  0  0  0  0
 17 18  2  0  0  0  0
 19 20  2  0  0  0  0
M  END
$$$$
O[C@@H]1[C@H](O)COC[C@H]1O
 OpenBabel07182308452D

 12 12  0  0  0  0  0  0  0  0999 V2000
   -3.2146   -5.7603    0.0000 C   0  0  1  0  0  0  0  0  0  0  0  0
   -3.2146   -6.5853    0.0000 C   0  0  2  0  0  0  0  0  0  0  0  0
   -2.5026   -6.9937    0.0000 C   0  0  1  0  0  0  0  0  0  0  0  0
   -1.7906   -6.5853    0.0000 C   0  0  0  0  0  0  0  0  0  0  0  0
   -1.7906   -5.7603    0.0000 O   0  0  0  0  0  0  0  0  0  0  0  0
   -2.5026   -5.3437    0.0000 C   0  0  0  0  0  0  0  0  0  0  0  0
   -3.9313   -5.3478    0.0000 O   0  0  0  0  0  0  0  0  0  0  0  0
   -3.9313   -6.9937    0.0000 O   0  0  0  0  0  0  0  0  0  0  0  0
   -2.5104   -7.8187    0.0000 O   0  0  0  0  0  0  0  0  0  0  0  0
   -3.9326   -4.3778    0.0000 H   0  0  0  0  0  0  0  0  0  0  0  0
   -4.7686   -6.5040    0.0000 H   0  0  0  0  0  0  0  0  0  0  0  0
   -3.3550   -8.2957    0.0000 H   0  0  0  0  0  0  0  0  0  0  0  0
  1  2  1  0  0  0  0
  1  7  1  6  0  0  0
  1  6  1  0  0  0  0
  2  3  1  0  0  0  0
  2  8  1  6  0  0  0
  3  4  1  0  0  0  0
  3  9  1  1  0  0  0
  4  5  1  0  0  0  0
  5  6  1  0  0  0  0
  7 10  1  0  0  0  0
  8 11  1  0  0  0  0
  9 12  1  0  0  0  0
M  END
$$$$
Oc1cc2cc(c1)[C@@H]1NC(=O)[C@@H](Cc3ccc(c(c3)Cl)Oc3cc4[C@@H](NC1=O)C(=O)N[C@H]1C(=O)N[C@@H](Cc5ccc(Oc(c4)c3)c(Cl)c5)C(=O)NCc3c(c4cc1ccc4O)c(O)cc(c3)O)NC(=O)[C@@H](c1cc(O2)c(O)cc1)N
 OpenBabel07182308452D

 92102  0  0  0  0  0  0  0  0999 V2000
    3.1986   -4.5023    0.0000 C   0  0  0  0  0  0  0  0  0  0  0  0
    3.1974   -5.3296    0.0000 C   0  0  0  0  0  0  0  0  0  0  0  0
    3.9122   -5.7425    0.0000 C   0  0  0  0  0  0  0  0  0  0  0  0
    4.6285   -5.3292    0.0000 C   0  0  0  0  0  0  0  0  0  0  0  0
    4.6257   -4.4986    0.0000 C   0  0  0  0  0  0  0  0  0  0  0  0
    3.9104   -4.0895    0.0000 C   0  0  0  0  0  0  0  0  0  0  0  0
    1.7756   -2.0270    0.0000 C   0  0  0  0  0  0  0  0  0  0  0  0
    1.7744   -2.8543    0.0000 C   0  0  0  0  0  0  0  0  0  0  0  0
    2.4892   -3.2672    0.0000 C   0  0  0  0  0  0  0  0  0  0  0  0
    3.2056   -2.8539    0.0000 C   0  0  0  0  0  0  0  0  0  0  0  0
    3.2029   -2.0233    0.0000 C   0  0  0  0  0  0  0  0  0  0  0  0
    2.4874   -1.6142    0.0000 C   0  0  0  0  0  0  0  0  0  0  0  0
   -2.4994   -2.0395    0.0000 C   0  0  0  0  0  0  0  0  0  0  0  0
   -1.7857   -3.2797    0.0000 C   0  0  0  0  0  0  0  0  0  0  0  0
   -1.0693   -2.8664    0.0000 C   0  0  0  0  0  0  0  0  0  0  0  0
   -1.0720   -2.0358    0.0000 C   0  0  0  0  0  0  0  0  0  0  0  0
   -1.7875   -1.6267    0.0000 C   0  0  0  0  0  0  0  0  0  0  0  0
   -4.6389   -3.2814    0.0000 C   0  0  0  0  0  0  0  0  0  0  0  0
   -4.6401   -4.1088    0.0000 C   0  0  0  0  0  0  0  0  0  0  0  0
   -3.9253   -4.5217    0.0000 C   0  0  0  0  0  0  0  0  0  0  0  0
   -3.2089   -4.1083    0.0000 C   0  0  0  0  0  0  0  0  0  0  0  0
   -3.2117   -3.2778    0.0000 C   0  0  0  0  0  0  0  0  0  0  0  0
   -3.9271   -2.8687    0.0000 C   0  0  0  0  0  0  0  0  0  0  0  0
   -5.3438   -0.3978    0.0000 O   0  0  0  0  0  0  0  0  0  0  0  0
   -4.6313   -0.8062    0.0000 C   0  0  0  0  0  0  0  0  0  0  0  0
   -3.9188   -0.3937    0.0000 C   0  0  1  0  0  0  0  0  0  0  0  0
   -3.2063   -0.8020    0.0000 N   0  0  0  0  0  0  0  0  0  0  0  0
   -2.4938   -0.3895    0.0000 C   0  0  0  0  0  0  0  0  0  0  0  0
   -1.7813   -0.7978    0.0000 C   0  0  2  0  0  0  0  0  0  0  0  0
   -1.0688   -0.3853    0.0000 N   0  0  0  0  0  0  0  0  0  0  0  0
   -0.3562   -0.7937    0.0000 C   0  0  0  0  0  0  0  0  0  0  0  0
    0.3561   -0.3812    0.0000 C   0  0  2  0  0  0  0  0  0  0  0  0
    1.0686   -0.7895    0.0000 N   0  0  0  0  0  0  0  0  0  0  0  0
    1.7811   -0.3770    0.0000 C   0  0  0  0  0  0  0  0  0  0  0  0
    2.4936   -0.7853    0.0000 C   0  0  1  0  0  0  0  0  0  0  0  0
    3.2062   -0.3728    0.0000 N   0  0  0  0  0  0  0  0  0  0  0  0
    3.9187   -0.7812    0.0000 C   0  0  0  0  0  0  0  0  0  0  0  0
    4.6311   -0.3687    0.0000 C   0  0  2  0  0  0  0  0  0  0  0  0
    6.0561   -1.2812    0.0000 N   0  0  0  0  0  0  0  0  0  0  0  0
   -3.9021    1.3437    0.0000 C   0  0  0  0  0  0  0  0  0  0  0  0
   -2.4979    0.4354    0.0000 O   0  0  0  0  0  0  0  0  0  0  0  0
   -0.3604   -1.6187    0.0000 O   0  0  0  0  0  0  0  0  0  0  0  0
    0.3895    1.3479    0.0000 C   0  0  0  0  0  0  0  0  0  0  0  0
    1.7771    0.4479    0.0000 O   0  0  0  0  0  0  0  0  0  0  0  0
    3.9145   -1.6062    0.0000 O   0  0  0  0  0  0  0  0  0  0  0  0
    2.5342    2.5927    0.0000 C   0  0  0  0  0  0  0  0  0  0  0  0
    2.5330    1.7653    0.0000 C   0  0  0  0  0  0  0  0  0  0  0  0
    3.2479    1.3525    0.0000 C   0  0  0  0  0  0  0  0  0  0  0  0
    3.9644    1.7658    0.0000 C   0  0  0  0  0  0  0  0  0  0  0  0
    3.9615    2.5963    0.0000 C   0  0  0  0  0  0  0  0  0  0  0  0
    3.2460    3.0055    0.0000 C   0  0  0  0  0  0  0  0  0  0  0  0
    1.1070    2.5891    0.0000 C   0  0  0  0  0  0  0  0  0  0  0  0
    1.1058    1.7617    0.0000 C   0  0  0  0  0  0  0  0  0  0  0  0
    1.8188    3.0018    0.0000 O   0  0  0  0  0  0  0  0  0  0  0  0
   -0.3201    2.5854    0.0000 C   0  0  0  0  0  0  0  0  0  0  0  0
   -0.3214    1.7581    0.0000 C   0  0  0  0  0  0  0  0  0  0  0  0
    0.3917    2.9982    0.0000 C   0  0  0  0  0  0  0  0  0  0  0  0
   -3.1818    1.7544    0.0000 C   0  0  0  0  0  0  0  0  0  0  0  0
   -3.1846    2.5849    0.0000 C   0  0  0  0  0  0  0  0  0  0  0  0
   -2.4649    1.3452    0.0000 C   0  0  0  0  0  0  0  0  0  0  0  0
   -1.7484    1.7585    0.0000 C   0  0  0  0  0  0  0  0  0  0  0  0
   -1.7513    2.5891    0.0000 C   0  0  0  0  0  0  0  0  0  0  0  0
   -2.4667    2.9982    0.0000 C   0  0  0  0  0  0  0  0  0  0  0  0
   -1.0357    1.3452    0.0000 Cl  0  0  0  0  0  0  0  0  0  0  0  0
   -1.0375    2.9982    0.0000 O   0  0  0  0  0  0  0  0  0  0  0  0
    3.2396    3.8312    0.0000 Cl  0  0  0  0  0  0  0  0  0  0  0  0
   -4.6354   -1.6312    0.0000 N   0  0  0  0  0  0  0  0  0  0  0  0
   -3.9229   -2.0437    0.0000 C   0  0  0  0  0  0  0  0  0  0  0  0
   -5.3604   -4.5145    0.0000 O   0  0  0  0  0  0  0  0  0  0  0  0
   -2.4979   -4.5187    0.0000 O   0  0  0  0  0  0  0  0  0  0  0  0
   -2.5021   -2.8603    0.0000 C   0  0  0  0  0  0  0  0  0  0  0  0
   -1.7938   -4.1020    0.0000 O   0  0  0  0  0  0  0  0  0  0  0  0
    3.9145   -3.2645    0.0000 O   0  0  0  0  0  0  0  0  0  0  0  0
    1.0562   -3.2603    0.0000 O   0  0  0  0  0  0  0  0  0  0  0  0
    2.4812   -4.0895    0.0000 O   0  0  0  0  0  0  0  0  0  0  0  0
    5.3396   -5.7395    0.0000 C   0  0  2  0  0  0  0  0  0  0  0  0
    6.0521   -5.3228    0.0000 C   0  0  0  0  0  0  0  0  0  0  0  0
    6.7646   -5.7353    0.0000 O   0  0  0  0  0  0  0  0  0  0  0  0
    5.3353   -6.5645    0.0000 N   0  0  0  0  0  0  0  0  0  0  0  0
    4.6729    1.3562    0.0000 C   0  0  0  0  0  0  0  0  0  0  0  0
   -3.2041   -1.7865    0.0000 H   0  0  0  0  0  0  0  0  0  0  0  0
   -1.0710    0.5992    0.0000 H   0  0  0  0  0  0  0  0  0  0  0  0
    1.0708   -1.7740    0.0000 H   0  0  0  0  0  0  0  0  0  0  0  0
    3.2041    0.6117    0.0000 H   0  0  0  0  0  0  0  0  0  0  0  0
    6.9200   -0.8091    0.0000 H   0  0  0  0  0  0  0  0  0  0  0  0
   -5.4895   -2.1208    0.0000 H   0  0  0  0  0  0  0  0  0  0  0  0
   -6.1668   -4.0374    0.0000 H   0  0  0  0  0  0  0  0  0  0  0  0
   -2.6098   -4.5625    0.0000 H   0  0  0  0  0  0  0  0  0  0  0  0
    0.2490   -2.7844    0.0000 H   0  0  0  0  0  0  0  0  0  0  0  0
    2.4798   -3.1525    0.0000 H   0  0  0  0  0  0  0  0  0  0  0  0
    4.4493   -7.0699    0.0000 H   0  0  0  0  0  0  0  0  0  0  0  0
    6.2160   -7.0791    0.0000 H   0  0  0  0  0  0  0  0  0  0  0  0
  1  2  2  0  0  0  0
  1 75  1  0  0  0  0
  2  3  1  0  0  0  0
  3  4  2  0  0  0  0
  4  5  1  0  0  0  0
  4 76  1  0  0  0  0
  5  6  2  0  0  0  0
  6  1  1  0  0  0  0
  7  8  2  0  0  0  0
  8  9  1  0  0  0  0
  8 74  1  0  0  0  0
  9 10  2  0  0  0  0
 10 11  1  0  0  0  0
 10 73  1  0  0  0  0
 11 12  2  0  0  0  0
 12  7  1  0  0  0  0
 13 71  2  0  0  0  0
 14 15  2  0  0  0  0
 14 72  1  0  0  0  0
 15 16  1  0  0  0  0
 16 17  2  0  0  0  0
 17 13  1  0  0  0  0
 18 19  2  0  0  0  0
 19 20  1  0  0  0  0
 19 69  1  0  0  0  0
 20 21  2  0  0  0  0
 21 22  1  0  0  0  0
 21 70  1  0  0  0  0
 22 23  2  0  0  0  0
 22 71  1  0  0  0  0
 23 18  1  0  0  0  0
 24 25  2  0  0  0  0
 25 67  1  0  0  0  0
 25 26  1  0  0  0  0
 26 40  1  6  0  0  0
 26 27  1  0  0  0  0
 27 28  1  0  0  0  0
 27 81  1  0  0  0  0
 28 41  2  0  0  0  0
 29 28  1  6  0  0  0
 29 30  1  0  0  0  0
 29 17  1  0  0  0  0
 30 31  1  0  0  0  0
 30 82  1  0  0  0  0
 31 42  2  0  0  0  0
 32 31  1  1  0  0  0
 32 33  1  0  0  0  0
 32 43  1  0  0  0  0
 33 34  1  0  0  0  0
 33 83  1  0  0  0  0
 34 44  2  0  0  0  0
 35 34  1  1  0  0  0
 35 36  1  0  0  0  0
 35 12  1  0  0  0  0
 36 37  1  0  0  0  0
 36 84  1  0  0  0  0
 37 38  1  0  0  0  0
 37 45  2  0  0  0  0
 38 39  1  0  0  0  0
 38 80  1  1  0  0  0
 39 85  1  0  0  0  0
 40 58  1  0  0  0  0
 43 53  1  0  0  0  0
 46 47  2  0  0  0  0
 46 54  1  0  0  0  0
 47 48  1  0  0  0  0
 48 49  2  0  0  0  0
 49 50  1  0  0  0  0
 49 80  1  0  0  0  0
 50 51  2  0  0  0  0
 51 46  1  0  0  0  0
 51 66  1  0  0  0  0
 52 53  2  0  0  0  0
 52 57  1  0  0  0  0
 54 52  1  0  0  0  0
 55 56  1  0  0  0  0
 55 65  1  0  0  0  0
 56 43  2  0  0  0  0
 57 55  2  0  0  0  0
 58 59  1  0  0  0  0
 58 60  2  0  0  0  0
 60 61  1  0  0  0  0
 61 62  2  0  0  0  0
 61 64  1  0  0  0  0
 62 63  1  0  0  0  0
 63 59  2  0  0  0  0
 65 62  1  0  0  0  0
 67 68  1  0  0  0  0
 67 86  1  0  0  0  0
 68 23  1  0  0  0  0
 69 87  1  0  0  0  0
 71 14  1  0  0  0  0
 72 88  1  0  0  0  0
 73  6  1  0  0  0  0
 74 89  1  0  0  0  0
 75 90  1  0  0  0  0
 76 77  1  0  0  0  0
 76 79  1  6  0  0  0
 77 78  2  0  0  0  0
 77 39  1  0  0  0  0
 79 91  1  0  0  0  0
 79 92  1  0  0  0  0
M  END
$$$$
O[C@@H]1OC[C@H]([C@@H]([C@H]1N)O)O
 OpenBabel07182308452D

 13 13  0  0  0  0  0  0  0  0999 V2000
    1.1186    6.1646    0.0000 C   0  0  1  0  0  0  0  0  0  0  0  0
    1.1186    5.3396    0.0000 C   0  0  1  0  0  0  0  0  0  0  0  0
    1.8307    4.9312    0.0000 O   0  0  0  0  0  0  0  0  0  0  0  0
    2.5428    5.3396    0.0000 C   0  0  0  0  0  0  0  0  0  0  0  0
    2.5428    6.1646    0.0000 C   0  0  2  0  0  0  0  0  0  0  0  0
    1.8307    6.5812    0.0000 C   0  0  2  0  0  0  0  0  0  0  0  0
    0.4021    4.9312    0.0000 O   0  0  0  0  0  0  0  0  0  0  0  0
    1.8229    7.4062    0.0000 O   0  0  0  0  0  0  0  0  0  0  0  0
    3.2521    6.5812    0.0000 O   0  0  0  0  0  0  0  0  0  0  0  0
    0.4021    6.5771    0.0000 N   0  0  0  0  0  0  0  0  0  0  0  0
    2.6583    7.8991    0.0000 H   0  0  0  0  0  0  0  0  0  0  0  0
    4.0957    6.1025    0.0000 H   0  0  0  0  0  0  0  0  0  0  0  0
   -0.4489    6.0821    0.0000 H   0  0  0  0  0  0  0  0  0  0  0  0
  1 10  1  6  0  0  0
  1  2  1  0  0  0  0
  1  6  1  0  0  0  0
  2  7  1  1  0  0  0
  2  3  1  0  0  0  0
  3  4  1  0  0  0  0
  4  5  1  0  0  0  0
  5  6  1  0  0  0  0
  5  9  1  6  0  0  0
  6  8  1  1  0  0  0
  8 11  1  0  0  0  0
  9 12  1  0  0  0  0
 10 13  1  0  0  0  0
M  END
$$$$
O[C@@H]1OC[C@H]([C@@H](C1)O)O
 OpenBabel07182308452D

 11 11  0  0  0  0  0  0  0  0999 V2000
   -5.3333    3.8149    0.0000 C   0  0  2  0  0  0  0  0  0  0  0  0
   -5.3333    2.9899    0.0000 C   0  0  0  0  0  0  0  0  0  0  0  0
   -4.6213    2.5815    0.0000 C   0  0  1  0  0  0  0  0  0  0  0  0
   -3.9093    2.9899    0.0000 O   0  0  0  0  0  0  0  0  0  0  0  0
   -3.9093    3.8149    0.0000 C   0  0  0  0  0  0  0  0  0  0  0  0
   -4.6213    4.2315    0.0000 C   0  0  1  0  0  0  0  0  0  0  0  0
   -4.6193    1.6835    0.0000 O   0  0  0  0  0  0  0  0  0  0  0  0
   -6.0521    4.2312    0.0000 O   0  0  0  0  0  0  0  0  0  0  0  0
   -4.6271    5.0604    0.0000 O   0  0  0  0  0  0  0  0  0  0  0  0
   -6.0508    5.2012    0.0000 H   0  0  0  0  0  0  0  0  0  0  0  0
   -3.7905    5.5513    0.0000 H   0  0  0  0  0  0  0  0  0  0  0  0
  1  2  1  0  0  0  0
  1  6  1  0  0  0  0
  1  8  1  1  0  0  0
  2  3  1  0  0  0  0
  3  4  1  0  0  0  0
  3  7  1  1  0  0  0
  4  5  1  0  0  0  0
  5  6  1  0  0  0  0
  6  9  1  6  0  0  0
  8 10  1  0  0  0  0
  9 11  1  0  0  0  0
M  END
$$$$
Nc1ccncn1
 OpenBabel07182308452D

  8  8  0  0  0  0  0  0  0  0999 V2000
    0.7589    2.0266    0.0000 C   0  0  0  0  0  0  0  0  0  0  0  0
    1.4733    1.6141    0.0000 N   0  0  0  0  0  0  0  0  0  0  0  0
    1.4733    0.7891    0.0000 C   0  0  0  0  0  0  0  0  0  0  0  0
    0.7589    0.3766    0.0000 N   0  0  0  0  0  0  0  0  0  0  0  0
    0.0444    0.7891    0.0000 C   0  0  0  0  0  0  0  0  0  0  0  0
   -0.6701    0.3766    0.0000 N   0  0  0  0  0  0  0  0  0  0  0  0
    0.0444    1.6141    0.0000 C   0  0  0  0  0  0  0  0  0  0  0  0
   -1.5227    0.8689    0.0000 H   0  0  0  0  0  0  0  0  0  0  0  0
  1  2  2  0  0  0  0
  1  7  1  0  0  0  0
  2  3  1  0  0  0  0
  3  4  2  0  0  0  0
  4  5  1  0  0  0  0
  5  6  1  0  0  0  0
  5  7  2  0  0  0  0
  6  8  1  0  0  0  0
M  END
$$$$
CN1CCC(=C2c3ccsc3CCc3c2cccc3)CC1
 OpenBabel07182308452D

 21 24  0  0  0  0  0  0  0  0999 V2000
    3.5723   -4.1235    0.0000 C   0  0  0  0  0  0  0  0  0  0  0  0
    5.8459    0.0465    0.0000 C   0  0  0  0  0  0  0  0  0  0  0  0
    5.6713   -0.7598    0.0000 C   0  0  0  0  0  0  0  0  0  0  0  0
    5.2349    0.6008    0.0000 C   0  0  0  0  0  0  0  0  0  0  0  0
    4.8857   -1.0118    0.0000 C   0  0  0  0  0  0  0  0  0  0  0  0
    3.9277    0.9881    0.0000 C   0  0  0  0  0  0  0  0  0  0  0  0
    3.1028    0.9789    0.0000 C   0  0  0  0  0  0  0  0  0  0  0  0
    2.8349   -2.0691    0.0000 C   0  0  0  0  0  0  0  0  0  0  0  0
    4.2637   -2.0531    0.0000 C   0  0  0  0  0  0  0  0  0  0  0  0
    2.0847   -0.9051    0.0000 C   0  0  0  0  0  0  0  0  0  0  0  0
    2.8441   -2.8941    0.0000 C   0  0  0  0  0  0  0  0  0  0  0  0
    4.2729   -2.8781    0.0000 C   0  0  0  0  0  0  0  0  0  0  0  0
    1.4574   -0.3693    0.0000 C   0  0  0  0  0  0  0  0  0  0  0  0
    4.4493    0.3489    0.0000 C   0  0  0  0  0  0  0  0  0  0  0  0
    3.5447   -1.6487    0.0000 C   0  0  0  0  0  0  0  0  0  0  0  0
    4.2747   -0.4575    0.0000 C   0  0  0  0  0  0  0  0  0  0  0  0
    2.7882   -0.4741    0.0000 C   0  0  0  0  0  0  0  0  0  0  0  0
    2.5956    0.3281    0.0000 C   0  0  0  0  0  0  0  0  0  0  0  0
    3.5354   -0.8237    0.0000 C   0  0  0  0  0  0  0  0  0  0  0  0
    3.5631   -3.2985    0.0000 N   0  0  0  0  0  0  0  0  0  0  0  0
    1.7732    0.3929    0.0000 S   0  0  0  0  0  0  0  0  0  0  0  0
  3  2  2  0  0  0  0
  4  2  1  0  0  0  0
  5  3  1  0  0  0  0
  7  6  1  0  0  0  0
 11  8  1  0  0  0  0
 12  9  1  0  0  0  0
 13 10  2  0  0  0  0
 14  4  2  0  0  0  0
 14  6  1  0  0  0  0
 15  8  1  0  0  0  0
 15  9  1  0  0  0  0
 16  5  2  0  0  0  0
 16 14  1  0  0  0  0
 17 10  1  0  0  0  0
 18  7  1  0  0  0  0
 18 17  2  0  0  0  0
 19 15  2  0  0  0  0
 19 16  1  0  0  0  0
 19 17  1  0  0  0  0
 20  1  1  0  0  0  0
 20 11  1  0  0  0  0
 20 12  1  0  0  0  0
 21 13  1  0  0  0  0
 21 18  1  0  0  0  0
M  END
$$$$
CC(C)(C)C
 OpenBabel07182308452D

  5  4  0  0  0  0  0  0  0  0999 V2000
    0.0000    0.7615    0.0000 C   0  0  0  0  0  0  0  0  0  0  0  0
   -0.7144    1.1740    0.0000 C   0  0  0  0  0  0  0  0  0  0  0  0
    0.7144    1.1740    0.0000 C   0  0  0  0  0  0  0  0  0  0  0  0
    0.5833    0.1781    0.0000 C   0  0  0  0  0  0  0  0  0  0  0  0
   -0.5833    0.1781    0.0000 C   0  0  0  0  0  0  0  0  0  0  0  0
  2  1  1  0  0  0  0
  3  1  1  0  0  0  0
  4  1  1  0  0  0  0
  5  1  1  0  0  0  0
M  END
$$$$
NN1CCCCC1
 OpenBabel07182308452D

  8  8  0  0  0  0  0  0  0  0999 V2000
    2.9555    2.1986    0.0000 N   0  0  0  0  0  0  0  0  0  0  0  0
    3.4404    1.5312    0.0000 N   0  0  0  0  0  0  0  0  0  0  0  0
    1.9856    3.5335    0.0000 C   0  0  0  0  0  0  0  0  0  0  0  0
    1.6500    2.7798    0.0000 C   0  0  0  0  0  0  0  0  0  0  0  0
    2.8061    3.6198    0.0000 C   0  0  0  0  0  0  0  0  0  0  0  0
    2.1350    2.1124    0.0000 C   0  0  0  0  0  0  0  0  0  0  0  0
    3.2910    2.9522    0.0000 C   0  0  0  0  0  0  0  0  0  0  0  0
    3.0399    0.6318    0.0000 H   0  0  0  0  0  0  0  0  0  0  0  0
  1  2  1  0  0  0  0
  1  6  1  0  0  0  0
  1  7  1  0  0  0  0
  2  8  1  0  0  0  0
  3  4  1  0  0  0  0
  3  5  1  0  0  0  0
  4  6  1  0  0  0  0
  5  7  1  0  0  0  0
M  END
$$$$
CN1CCc2c(C1)cc1c(c2)OCO1
 OpenBabel07182308452D

 15 17  0  0  0  0  0  0  0  0999 V2000
    1.8785   -1.3916    0.0000 C   0  0  0  0  0  0  0  0  0  0  0  0
    2.5929   -0.9791    0.0000 N   0  0  0  0  0  0  0  0  0  0  0  0
    3.3074   -1.3916    0.0000 C   0  0  0  0  0  0  0  0  0  0  0  0
    2.5929   -0.1541    0.0000 C   0  0  0  0  0  0  0  0  0  0  0  0
    1.8785    0.2584    0.0000 C   0  0  0  0  0  0  0  0  0  0  0  0
    1.1640   -0.1541    0.0000 C   0  0  0  0  0  0  0  0  0  0  0  0
    0.4495    0.2584    0.0000 C   0  0  0  0  0  0  0  0  0  0  0  0
   -0.2649   -0.1541    0.0000 C   0  0  0  0  0  0  0  0  0  0  0  0
   -1.0496    0.1009    0.0000 O   0  0  0  0  0  0  0  0  0  0  0  0
   -1.5345   -0.5666    0.0000 C   0  0  0  0  0  0  0  0  0  0  0  0
   -1.0496   -1.2340    0.0000 O   0  0  0  0  0  0  0  0  0  0  0  0
   -0.2649   -0.9791    0.0000 C   0  0  0  0  0  0  0  0  0  0  0  0
    0.4495   -1.3916    0.0000 C   0  0  0  0  0  0  0  0  0  0  0  0
    1.1640   -0.9791    0.0000 C   0  0  0  0  0  0  0  0  0  0  0  0
    1.8785   -0.5666    0.0000 H   0  0  0  0  0  0  0  0  0  0  0  0
  1  2  1  0  0  0  0
  1 14  1  0  0  0  0
  1 15  1  0  0  0  0
  2  3  1  0  0  0  0
  2  4  1  0  0  0  0
  4  5  1  0  0  0  0
  5  6  1  0  0  0  0
  6  7  2  0  0  0  0
  6 14  1  0  0  0  0
  7  8  1  0  0  0  0
  8  9  1  0  0  0  0
  8 12  2  0  0  0  0
  9 10  1  0  0  0  0
 10 11  1  0  0  0  0
 11 12  1  0  0  0  0
 12 13  1  0  0  0  0
 13 14  2  0  0  0  0
M  END
$$$$
C/C=C/1\NC(=O)[C@H]2CSSCC/C=C/[C@@H](OC(=O)CNC1=O)CC(=O)NCC(=O)N2
 OpenBabel07182308452D

 34 35  0  0  0  0  0  0  0  0999 V2000
    2.5974    1.2897    0.0000 O   0  0  0  0  0  0  0  0  0  0  0  0
   -0.9920    2.2985    0.0000 C   0  0  0  0  0  0  0  0  0  0  0  0
   -0.9920    1.4736    0.0000 N   0  0  0  0  0  0  0  0  0  0  0  0
   -1.7066    2.7111    0.0000 C   0  0  0  0  0  0  0  0  0  0  0  0
   -1.7066    1.0611    0.0000 C   0  0  0  0  0  0  0  0  0  0  0  0
   -2.4210    2.2985    0.0000 C   0  0  0  0  0  0  0  0  0  0  0  0
   -2.4210    1.4736    0.0000 O   0  0  0  0  0  0  0  0  0  0  0  0
   -0.2776    2.7111    0.0000 C   0  0  0  0  0  0  0  0  0  0  0  0
    0.4368    2.2985    0.0000 N   0  0  0  0  0  0  0  0  0  0  0  0
   -0.2776    3.5361    0.0000 O   0  0  0  0  0  0  0  0  0  0  0  0
    1.1512    2.7111    0.0000 C   0  0  0  0  0  0  0  0  0  0  0  0
    2.1739    2.3583    0.0000 C   0  0  0  0  0  0  0  0  0  0  0  0
   -1.7066    0.2360    0.0000 C   0  0  2  0  0  0  0  0  0  0  0  0
   -0.9922   -0.1764    0.0000 N   0  0  0  0  0  0  0  0  0  0  0  0
   -0.9922   -1.0014    0.0000 C   0  0  0  0  0  0  0  0  0  0  0  0
   -0.2777   -1.4139    0.0000 C   0  0  0  0  0  0  0  0  0  0  0  0
    0.4367   -1.0015    0.0000 N   0  0  0  0  0  0  0  0  0  0  0  0
    0.4367   -0.1765    0.0000 C   0  0  0  0  0  0  0  0  0  0  0  0
    1.1512    0.2359    0.0000 C   0  0  0  0  0  0  0  0  0  0  0  0
   -0.2776    0.2360    0.0000 O   0  0  0  0  0  0  0  0  0  0  0  0
   -1.7066   -1.4139    0.0000 O   0  0  0  0  0  0  0  0  0  0  0  0
    2.0843    0.1116    0.0000 C   0  0  1  0  0  0  0  0  0  0  0  0
    2.7600    2.9710    0.0000 O   0  0  0  0  0  0  0  0  0  0  0  0
   -2.4807   -0.4249    0.0000 C   0  0  0  0  0  0  0  0  0  0  0  0
   -2.7601   -1.7717    0.0000 S   0  0  0  0  0  0  0  0  0  0  0  0
   -2.3228   -3.1633    0.0000 S   0  0  0  0  0  0  0  0  0  0  0  0
   -0.2752   -3.9486    0.0000 C   0  0  0  0  0  0  0  0  0  0  0  0
    1.9313   -2.9844    0.0000 C   0  0  0  0  0  0  0  0  0  0  0  0
    1.8418   -1.7419    0.0000 C   0  0  0  0  0  0  0  0  0  0  0  0
    2.5875   -0.7380    0.0000 C   0  0  0  0  0  0  0  0  0  0  0  0
   -0.1394    0.9813    0.0000 H   0  0  0  0  0  0  0  0  0  0  0  0
    0.4368    1.3140    0.0000 H   0  0  0  0  0  0  0  0  0  0  0  0
   -0.1396    0.3159    0.0000 H   0  0  0  0  0  0  0  0  0  0  0  0
    1.2893   -1.4938    0.0000 H   0  0  0  0  0  0  0  0  0  0  0  0
  1 12  1  0  0  0  0
  1 22  1  0  0  0  0
  2  8  1  0  0  0  0
  3  2  1  0  0  0  0
  3 31  1  0  0  0  0
  4  2  2  0  0  0  0
  5  3  1  0  0  0  0
  5 13  1  0  0  0  0
  6  4  1  0  0  0  0
  7  5  2  0  0  0  0
  8  9  1  0  0  0  0
  8 10  2  0  0  0  0
  9 11  1  0  0  0  0
  9 32  1  0  0  0  0
 11 12  1  0  0  0  0
 12 23  2  0  0  0  0
 13 14  1  0  0  0  0
 13 24  1  6  0  0  0
 14 15  1  0  0  0  0
 14 33  1  0  0  0  0
 15 16  1  0  0  0  0
 15 21  2  0  0  0  0
 16 17  1  0  0  0  0
 17 18  1  0  0  0  0
 17 34  1  0  0  0  0
 18 19  1  0  0  0  0
 18 20  2  0  0  0  0
 22 19  1  6  0  0  0
 22 30  1  0  0  0  0
 24 25  1  0  0  0  0
 25 26  1  0  0  0  0
 26 27  1  0  0  0  0
 27 28  1  0  0  0  0
 28 29  1  0  0  0  0
 29 30  2  0  0  0  0
M  END
$$$$
Nc1cccc2c1C(=O)c1ccncc1C2=O
 OpenBabel07182308452D

 18 20  0  0  0  0  0  0  0  0999 V2000
    0.0000   -0.4124    0.0000 C   0  0  0  0  0  0  0  0  0  0  0  0
    0.0000    0.4126    0.0000 C   0  0  0  0  0  0  0  0  0  0  0  0
   -0.7126   -0.8251    0.0000 C   0  0  0  0  0  0  0  0  0  0  0  0
   -0.7126    0.8251    0.0000 C   0  0  0  0  0  0  0  0  0  0  0  0
   -1.4294   -0.4124    0.0000 C   0  0  0  0  0  0  0  0  0  0  0  0
   -1.4294    0.4126    0.0000 C   0  0  0  0  0  0  0  0  0  0  0  0
    0.7167   -0.8251    0.0000 C   0  0  0  0  0  0  0  0  0  0  0  0
    0.7167    0.8251    0.0000 C   0  0  0  0  0  0  0  0  0  0  0  0
   -0.7126   -1.6501    0.0000 O   0  0  0  0  0  0  0  0  0  0  0  0
   -0.7126    1.6502    0.0000 O   0  0  0  0  0  0  0  0  0  0  0  0
   -2.8586   -0.4124    0.0000 N   0  0  0  0  0  0  0  0  0  0  0  0
    1.4293    0.4126    0.0000 C   0  0  0  0  0  0  0  0  0  0  0  0
    1.4293   -0.4124    0.0000 C   0  0  0  0  0  0  0  0  0  0  0  0
   -2.1420   -0.8251    0.0000 C   0  0  0  0  0  0  0  0  0  0  0  0
    0.7167    1.6502    0.0000 N   0  0  0  0  0  0  0  0  0  0  0  0
   -2.1420    0.8251    0.0000 C   0  0  0  0  0  0  0  0  0  0  0  0
   -2.8586    0.4126    0.0000 C   0  0  0  0  0  0  0  0  0  0  0  0
   -0.1362    2.1419    0.0000 H   0  0  0  0  0  0  0  0  0  0  0  0
  2  1  2  0  0  0  0
  3  1  1  0  0  0  0
  4  2  1  0  0  0  0
  5  3  1  0  0  0  0
  6  5  2  0  0  0  0
  6  4  1  0  0  0  0
  7  1  1  0  0  0  0
  8 12  2  0  0  0  0
  8  2  1  0  0  0  0
  9  3  2  0  0  0  0
 10  4  2  0  0  0  0
 11 17  1  0  0  0  0
 11 14  2  0  0  0  0
 12 13  1  0  0  0  0
 13  7  2  0  0  0  0
 14  5  1  0  0  0  0
 15  8  1  0  0  0  0
 15 18  1  0  0  0  0
 16  6  1  0  0  0  0
 17 16  2  0  0  0  0
M  END
$$$$
O[C@H]1CNCC1
 OpenBabel07182308452D

  8  8  0  0  0  0  0  0  0  0999 V2000
   -1.9838   -3.2146    0.0000 N   0  0  0  0  0  0  0  0  0  0  0  0
   -1.9311   -4.1092    0.0000 C   0  0  0  0  0  0  0  0  0  0  0  0
   -1.0671   -4.3382    0.0000 C   0  0  2  0  0  0  0  0  0  0  0  0
   -0.7700   -5.1077    0.0000 O   0  0  0  0  0  0  0  0  0  0  0  0
   -0.5813   -3.5883    0.0000 C   0  0  0  0  0  0  0  0  0  0  0  0
   -1.2036   -3.0427    0.0000 C   0  0  0  0  0  0  0  0  0  0  0  0
   -1.4252   -2.2480    0.0000 H   0  0  0  0  0  0  0  0  0  0  0  0
   -1.3790   -5.8627    0.0000 H   0  0  0  0  0  0  0  0  0  0  0  0
  1  6  1  0  0  0  0
  2  1  1  0  0  0  0
  2  3  1  0  0  0  0
  3  4  1  1  0  0  0
  3  5  1  0  0  0  0
  4  8  1  0  0  0  0
  6  5  1  0  0  0  0
  6  7  1  0  0  0  0
M  END
$$$$
Oc1ccc2c(c1)CCCC2
 OpenBabel07182308452D

 14 15  0  0  1  0  0  0  0  0999 V2000
    2.1434   -0.4125    0.0000 C   0  0  0  0  0  0  0  0  0  0  0  0
    4.2868    0.8250    0.0000 C   0  0  0  0  0  0  0  0  0  0  0  0
    1.4289    0.0000    0.0000 C   0  0  0  0  0  0  0  0  0  0  0  0
    3.5724    1.2375    0.0000 C   0  0  0  0  0  0  0  0  0  0  0  0
    3.5724   -0.4125    0.0000 C   0  0  0  0  0  0  0  0  0  0  0  0
    2.8579    0.0000    0.0000 C   0  0  0  0  0  0  0  0  0  0  0  0
    4.2868    0.0000    0.0000 C   0  0  0  0  0  0  0  0  0  0  0  0
    1.4289    0.8250    0.0000 C   0  0  0  0  0  0  0  0  0  0  0  0
    2.8579    0.8250    0.0000 C   0  0  0  0  0  0  0  0  0  0  0  0
    2.1434    1.2375    0.0000 C   0  0  0  0  0  0  0  0  0  0  0  0
    5.0013   -0.4125    0.0000 O   0  0  0  0  0  0  0  0  0  0  0  0
    0.7145    0.4125    0.0000 H   0  0  0  0  0  0  0  0  0  0  0  0
    1.4289    1.6500    0.0000 H   0  0  0  0  0  0  0  0  0  0  0  0
    5.0013   -1.3495    0.0000 H   0  0  0  0  0  0  0  0  0  0  0  0
  3  1  1  0  0  0  0
  4  2  1  0  0  0  0
  6  1  1  0  0  0  0
  6  5  2  0  0  0  0
  7  2  2  0  0  0  0
  7  5  1  0  0  0  0
  8  3  1  0  0  0  0
  8 12  1  0  0  0  0
  9  4  2  0  0  0  0
  9  6  1  0  0  0  0
 10  8  1  0  0  0  0
 10  9  1  0  0  0  0
 10 13  1  0  0  0  0
 11  7  1  0  0  0  0
 11 14  1  0  0  0  0
M  END
$$$$
Cn1ccc(=O)n(c1=O)C
 OpenBabel07182308452D

 10 10  0  0  1  0  0  0  0  0999 V2000
    9.8635   -8.0062    0.0000 C   0  0  0  0  0  0  0  0  0  0  0  0
    9.8635   -7.1812    0.0000 N   0  0  0  0  0  0  0  0  0  0  0  0
    9.1490   -6.7687    0.0000 C   0  0  0  0  0  0  0  0  0  0  0  0
   10.5780   -8.4187    0.0000 N   0  0  0  0  0  0  0  0  0  0  0  0
   11.2925   -8.0062    0.0000 C   0  0  0  0  0  0  0  0  0  0  0  0
   11.2925   -7.1812    0.0000 C   0  0  0  0  0  0  0  0  0  0  0  0
   10.5780   -6.7687    0.0000 C   0  0  0  0  0  0  0  0  0  0  0  0
    9.1404   -8.4238    0.0000 O   0  0  0  0  0  0  0  0  0  0  0  0
   10.5780   -9.2435    0.0000 C   0  0  0  0  0  0  0  0  0  0  0  0
   12.0093   -8.4200    0.0000 O   0  0  0  0  0  0  0  0  0  0  0  0
  1  2  1  0  0  0  0
  1  4  1  0  0  0  0
  1  8  2  0  0  0  0
  2  3  1  0  0  0  0
  2  7  1  0  0  0  0
  4  5  1  0  0  0  0
  4  9  1  0  0  0  0
  5  6  1  0  0  0  0
  5 10  2  0  0  0  0
  6  7  2  0  0  0  0
M  END
$$$$
N[C@@H]1CCCNC1
 OpenBabel07182308452D

  9  9  0  0  1  0  0  0  0  0999 V2000
   10.5780   -5.9438    0.0000 N   0  0  0  0  0  0  0  0  0  0  0  0
   11.3047   -5.5241    0.0000 C   0  0  0  0  0  0  0  0  0  0  0  0
   11.3046   -4.6991    0.0000 C   0  0  0  0  0  0  0  0  0  0  0  0
   10.5901   -4.2867    0.0000 C   0  0  0  0  0  0  0  0  0  0  0  0
    9.8633   -4.7065    0.0000 C   0  0  2  0  0  0  0  0  0  0  0  0
    9.8634   -5.5315    0.0000 C   0  0  0  0  0  0  0  0  0  0  0  0
    9.1402   -4.2890    0.0000 N   0  0  0  0  0  0  0  0  0  0  0  0
    9.1402   -3.2690    0.0000 H   0  0  0  0  0  0  0  0  0  0  0  0
    8.2568   -4.7990    0.0000 H   0  0  0  0  0  0  0  0  0  0  0  0
  1  2  1  0  0  0  0
  1  6  1  0  0  0  0
  2  3  1  0  0  0  0
  3  4  1  0  0  0  0
  4  5  1  0  0  0  0
  5  6  1  0  0  0  0
  5  7  1  6  0  0  0
  7  8  1  0  0  0  0
  7  9  1  0  0  0  0
M  END
$$$$
C[C@H]1O[C@@H]2O[C@@H]3[C@@H](C)O[C@@H]([C@@H]([C@H]3O)O)O[C@@H]3[C@@H](C)O[C@@H]([C@@H]([C@H]3O)O)O[C@@H]3[C@@H](C)O[C@@H]([C@@H]([C@H]3O)O)O[C@@H]3[C@H](O[C@H](O[C@@H]4[C@H](O[C@H](O[C@@H]5[C@H](O[C@H](O[C@@H]6[C@H](O[C@H](O[C@H]1[C@@H]([C@H]2O)O)[C@H](O)[C@H]6O)C)[C@H](O)[C@H]5O)C)[C@H](O)[C@H]4O)C)[C@@H]([C@H]3O)O)C
 OpenBabel07182308452D

 96104  0  0  0  0  0  0  0  0999 V2000
   -0.9910    2.9536    0.0000 C   0  0  0  0  0  0  0  0  0  0  0  0
    1.4706    2.2508    0.0000 C   0  0  0  0  0  0  0  0  0  0  0  0
   -4.5543    3.3385    0.0000 C   0  0  0  0  0  0  0  0  0  0  0  0
    3.0420    0.9240    0.0000 C   0  0  0  0  0  0  0  0  0  0  0  0
   -3.0017   -0.9003    0.0000 C   0  0  0  0  0  0  0  0  0  0  0  0
    4.5543   -3.3383    0.0000 C   0  0  0  0  0  0  0  0  0  0  0  0
   -1.4792   -2.2269    0.0000 C   0  0  0  0  0  0  0  0  0  0  0  0
    0.9926   -3.0116    0.0000 C   0  0  0  0  0  0  0  0  0  0  0  0
   -0.3253    3.4135    0.0000 C   0  0  2  0  0  0  0  0  0  0  0  0
    2.1836    2.6438    0.0000 C   0  0  2  0  0  0  0  0  0  0  0  0
   -3.7521    3.0616    0.0000 C   0  0  2  0  0  0  0  0  0  0  0  0
    3.4135    0.3253    0.0000 C   0  0  2  0  0  0  0  0  0  0  0  0
   -3.4135   -0.3253    0.0000 C   0  0  2  0  0  0  0  0  0  0  0  0
    3.7521   -3.0616    0.0000 C   0  0  2  0  0  0  0  0  0  0  0  0
   -2.1836   -2.6438    0.0000 C   0  0  2  0  0  0  0  0  0  0  0  0
    0.3253   -3.4135    0.0000 C   0  0  2  0  0  0  0  0  0  0  0  0
   -0.4882    4.8181    0.0000 C   0  0  2  0  0  0  0  0  0  0  0  0
   -2.6438    2.1836    0.0000 C   0  0  2  0  0  0  0  0  0  0  0  0
    3.0616    3.7521    0.0000 C   0  0  2  0  0  0  0  0  0  0  0  0
   -4.8181   -0.4882    0.0000 C   0  0  2  0  0  0  0  0  0  0  0  0
    4.8181    0.4882    0.0000 C   0  0  2  0  0  0  0  0  0  0  0  0
   -3.0616   -3.7521    0.0000 C   0  0  2  0  0  0  0  0  0  0  0  0
    2.6438   -2.1836    0.0000 C   0  0  2  0  0  0  0  0  0  0  0  0
    0.4882   -4.8181    0.0000 C   0  0  2  0  0  0  0  0  0  0  0  0
    0.3284    4.9125    0.0000 C   0  0  2  0  0  0  0  0  0  0  0  0
   -2.1380    2.8210    0.0000 C   0  0  2  0  0  0  0  0  0  0  0  0
    3.7060    3.2413    0.0000 C   0  0  2  0  0  0  0  0  0  0  0  0
   -4.9125    0.3284    0.0000 C   0  0  2  0  0  0  0  0  0  0  0  0
    4.9125   -0.3284    0.0000 C   0  0  2  0  0  0  0  0  0  0  0  0
   -3.7059   -3.2413    0.0000 C   0  0  2  0  0  0  0  0  0  0  0  0
    2.1380   -2.8210    0.0000 C   0  0  2  0  0  0  0  0  0  0  0  0
   -0.3284   -4.9125    0.0000 C   0  0  2  0  0  0  0  0  0  0  0  0
   -0.8307    4.0656    0.0000 C   0  0  2  0  0  0  0  0  0  0  0  0
    2.2874    3.4622    0.0000 C   0  0  2  0  0  0  0  0  0  0  0  0
   -3.4622    2.2874    0.0000 C   0  0  2  0  0  0  0  0  0  0  0  0
    4.0656    0.8307    0.0000 C   0  0  2  0  0  0  0  0  0  0  0  0
   -4.0656   -0.8307    0.0000 C   0  0  2  0  0  0  0  0  0  0  0  0
    3.4622   -2.2874    0.0000 C   0  0  2  0  0  0  0  0  0  0  0  0
   -2.2874   -3.4622    0.0000 C   0  0  2  0  0  0  0  0  0  0  0  0
    0.8307   -4.0656    0.0000 C   0  0  2  0  0  0  0  0  0  0  0  0
    0.8329    4.2524    0.0000 C   0  0  2  0  0  0  0  0  0  0  0  0
   -2.4179    3.5959    0.0000 C   0  0  2  0  0  0  0  0  0  0  0  0
    3.5959    2.4179    0.0000 C   0  0  2  0  0  0  0  0  0  0  0  0
   -4.2524    0.8329    0.0000 C   0  0  2  0  0  0  0  0  0  0  0  0
    4.2524   -0.8329    0.0000 C   0  0  2  0  0  0  0  0  0  0  0  0
   -3.5959   -2.4179    0.0000 C   0  0  2  0  0  0  0  0  0  0  0  0
    2.4179   -3.5959    0.0000 C   0  0  2  0  0  0  0  0  0  0  0  0
   -0.8329   -4.2524    0.0000 C   0  0  2  0  0  0  0  0  0  0  0  0
   -0.8631    5.5771    0.0000 O   0  0  0  0  0  0  0  0  0  0  0  0
   -2.1604    1.8110    0.0000 O   0  0  0  0  0  0  0  0  0  0  0  0
    3.3439    4.5504    0.0000 O   0  0  0  0  0  0  0  0  0  0  0  0
   -5.5741   -0.8729    0.0000 O   0  0  0  0  0  0  0  0  0  0  0  0
    5.5740    0.8734    0.0000 O   0  0  0  0  0  0  0  0  0  0  0  0
   -3.3437   -4.5504    0.0000 O   0  0  0  0  0  0  0  0  0  0  0  0
    2.8182   -1.4790    0.0000 O   0  0  0  0  0  0  0  0  0  0  0  0
    0.8628   -5.5774    0.0000 O   0  0  0  0  0  0  0  0  0  0  0  0
    0.6401    5.6965    0.0000 O   0  0  0  0  0  0  0  0  0  0  0  0
   -1.8137    3.4355    0.0000 O   0  0  0  0  0  0  0  0  0  0  0  0
    4.4806    3.5787    0.0000 O   0  0  0  0  0  0  0  0  0  0  0  0
   -5.7110    0.6108    0.0000 O   0  0  0  0  0  0  0  0  0  0  0  0
    5.7111   -0.6108    0.0000 O   0  0  0  0  0  0  0  0  0  0  0  0
   -4.4817   -3.5736    0.0000 O   0  0  0  0  0  0  0  0  0  0  0  0
    1.8415   -3.4475    0.0000 O   0  0  0  0  0  0  0  0  0  0  0  0
   -0.6402   -5.6965    0.0000 O   0  0  0  0  0  0  0  0  0  0  0  0
    0.4829    3.5066    0.0000 O   0  0  0  0  0  0  0  0  0  0  0  0
   -3.2413    3.7059    0.0000 O   0  0  0  0  0  0  0  0  0  0  0  0
    2.8210    2.1380    0.0000 O   0  0  0  0  0  0  0  0  0  0  0  0
   -3.5066    0.4829    0.0000 O   0  0  0  0  0  0  0  0  0  0  0  0
    3.5066   -0.4829    0.0000 O   0  0  0  0  0  0  0  0  0  0  0  0
   -2.8210   -2.1380    0.0000 O   0  0  0  0  0  0  0  0  0  0  0  0
    3.2413   -3.7060    0.0000 O   0  0  0  0  0  0  0  0  0  0  0  0
   -0.4829   -3.5066    0.0000 O   0  0  0  0  0  0  0  0  0  0  0  0
   -1.6679    3.9744    0.0000 O   0  0  0  0  0  0  0  0  0  0  0  0
    1.6309    3.9897    0.0000 O   0  0  0  0  0  0  0  0  0  0  0  0
   -3.9897    1.6309    0.0000 O   0  0  0  0  0  0  0  0  0  0  0  0
    3.9744    1.6679    0.0000 O   0  0  0  0  0  0  0  0  0  0  0  0
   -3.9744   -1.6679    0.0000 O   0  0  0  0  0  0  0  0  0  0  0  0
    3.9897   -1.6309    0.0000 O   0  0  0  0  0  0  0  0  0  0  0  0
   -1.6309   -3.9897    0.0000 O   0  0  0  0  0  0  0  0  0  0  0  0
    1.6679   -3.9744    0.0000 O   0  0  0  0  0  0  0  0  0  0  0  0
   -0.3247    6.3840    0.0000 H   0  0  0  0  0  0  0  0  0  0  0  0
   -2.2891    0.8496    0.0000 H   0  0  0  0  0  0  0  0  0  0  0  0
    4.2976    4.7276    0.0000 H   0  0  0  0  0  0  0  0  0  0  0  0
   -6.3873   -0.3442    0.0000 H   0  0  0  0  0  0  0  0  0  0  0  0
    6.3875    0.3451    0.0000 H   0  0  0  0  0  0  0  0  0  0  0  0
   -4.2973   -4.7278    0.0000 H   0  0  0  0  0  0  0  0  0  0  0  0
    3.7502   -1.2100    0.0000 H   0  0  0  0  0  0  0  0  0  0  0  0
    0.3240   -6.3840    0.0000 H   0  0  0  0  0  0  0  0  0  0  0  0
    1.5999    5.8368    0.0000 H   0  0  0  0  0  0  0  0  0  0  0  0
   -0.8444    3.4724    0.0000 H   0  0  0  0  0  0  0  0  0  0  0  0
    5.2607    3.0022    0.0000 H   0  0  0  0  0  0  0  0  0  0  0  0
   -5.8882    1.5645    0.0000 H   0  0  0  0  0  0  0  0  0  0  0  0
    5.8883   -1.5645    0.0000 H   0  0  0  0  0  0  0  0  0  0  0  0
   -5.2583   -2.9924    0.0000 H   0  0  0  0  0  0  0  0  0  0  0  0
    0.8747   -3.5265    0.0000 H   0  0  0  0  0  0  0  0  0  0  0  0
   -1.6000   -5.8367    0.0000 H   0  0  0  0  0  0  0  0  0  0  0  0
  9  1  1  6  0  0  0
 10  2  1  6  0  0  0
 11  3  1  1  0  0  0
 12  4  1  6  0  0  0
 13  5  1  6  0  0  0
 14  6  1  1  0  0  0
 15  7  1  6  0  0  0
 16  8  1  6  0  0  0
 17 49  1  6  0  0  0
 18 50  1  1  0  0  0
 19 51  1  6  0  0  0
 20 52  1  6  0  0  0
 21 53  1  6  0  0  0
 22 54  1  6  0  0  0
 23 55  1  1  0  0  0
 24 56  1  6  0  0  0
 25 17  1  0  0  0  0
 25 57  1  1  0  0  0
 26 18  1  0  0  0  0
 26 58  1  6  0  0  0
 27 19  1  0  0  0  0
 27 59  1  1  0  0  0
 28 20  1  0  0  0  0
 28 60  1  1  0  0  0
 29 21  1  0  0  0  0
 29 61  1  1  0  0  0
 30 22  1  0  0  0  0
 30 62  1  1  0  0  0
 31 23  1  0  0  0  0
 31 63  1  6  0  0  0
 32 24  1  0  0  0  0
 32 64  1  1  0  0  0
 33  9  1  0  0  0  0
 33 17  1  0  0  0  0
 33 73  1  1  0  0  0
 34 10  1  0  0  0  0
 34 19  1  0  0  0  0
 34 74  1  1  0  0  0
 35 11  1  0  0  0  0
 35 18  1  0  0  0  0
 35 75  1  6  0  0  0
 36 12  1  0  0  0  0
 36 21  1  0  0  0  0
 36 76  1  1  0  0  0
 37 13  1  0  0  0  0
 37 20  1  0  0  0  0
 37 77  1  1  0  0  0
 38 14  1  0  0  0  0
 38 23  1  0  0  0  0
 38 78  1  6  0  0  0
 39 15  1  0  0  0  0
 39 22  1  0  0  0  0
 39 79  1  1  0  0  0
 40 16  1  0  0  0  0
 40 24  1  0  0  0  0
 40 80  1  1  0  0  0
 41 25  1  0  0  0  0
 41 65  1  1  0  0  0
 41 74  1  0  0  0  0
 42 26  1  0  0  0  0
 42 66  1  6  0  0  0
 42 73  1  0  0  0  0
 43 27  1  0  0  0  0
 43 67  1  1  0  0  0
 43 76  1  0  0  0  0
 44 28  1  0  0  0  0
 44 68  1  1  0  0  0
 44 75  1  0  0  0  0
 45 29  1  0  0  0  0
 45 69  1  1  0  0  0
 45 78  1  0  0  0  0
 46 30  1  0  0  0  0
 46 70  1  1  0  0  0
 46 77  1  0  0  0  0
 47 31  1  0  0  0  0
 47 71  1  6  0  0  0
 47 80  1  0  0  0  0
 48 32  1  0  0  0  0
 48 72  1  1  0  0  0
 48 79  1  0  0  0  0
 49 81  1  0  0  0  0
 50 82  1  0  0  0  0
 51 83  1  0  0  0  0
 52 84  1  0  0  0  0
 53 85  1  0  0  0  0
 54 86  1  0  0  0  0
 55 87  1  0  0  0  0
 56 88  1  0  0  0  0
 57 89  1  0  0  0  0
 58 90  1  0  0  0  0
 59 91  1  0  0  0  0
 60 92  1  0  0  0  0
 61 93  1  0  0  0  0
 62 94  1  0  0  0  0
 63 95  1  0  0  0  0
 64 96  1  0  0  0  0
 65  9  1  0  0  0  0
 66 11  1  0  0  0  0
 67 10  1  0  0  0  0
 68 13  1  0  0  0  0
 69 12  1  0  0  0  0
 70 15  1  0  0  0  0
 71 14  1  0  0  0  0
 72 16  1  0  0  0  0
M  END
$$$$
Cc1ccc2c(c1)CCN2C
 OpenBabel07182308452D

 11 12  0  0  1  0  0  0  0  0999 V2000
    8.1466    2.9981    0.0000 N   0  0  0  0  0  0  0  0  0  0  0  0
    7.3659    2.7467    0.0000 C   0  0  0  0  0  0  0  0  0  0  0  0
    8.6280    2.3341    0.0000 C   0  0  0  0  0  0  0  0  0  0  0  0
    7.3659    1.9216    0.0000 C   0  0  0  0  0  0  0  0  0  0  0  0
    8.1466    1.6702    0.0000 C   0  0  0  0  0  0  0  0  0  0  0  0
    8.4029    3.7823    0.0000 C   0  0  0  0  0  0  0  0  0  0  0  0
    5.9370    1.9216    0.0000 C   0  0  0  0  0  0  0  0  0  0  0  0
    6.6515    3.1592    0.0000 C   0  0  0  0  0  0  0  0  0  0  0  0
    6.6515    1.5091    0.0000 C   0  0  0  0  0  0  0  0  0  0  0  0
    5.2224    1.5091    0.0000 C   0  0  0  0  0  0  0  0  0  0  0  0
    5.9370    2.7467    0.0000 C   0  0  0  0  0  0  0  0  0  0  0  0
  1  2  1  0  0  0  0
  1  3  1  0  0  0  0
  1  6  1  0  0  0  0
  2  4  2  0  0  0  0
  2  8  1  0  0  0  0
  3  5  1  0  0  0  0
  4  5  1  0  0  0  0
  4  9  1  0  0  0  0
  7  9  2  0  0  0  0
  7 10  1  0  0  0  0
  7 11  1  0  0  0  0
  8 11  2  0  0  0  0
M  END
$$$$
O=C1NN=C(C1=N)C
 OpenBabel07182308452D

  8  8  0  0  0  0  0  0  0  0999 V2000
   -0.9774    1.2359    0.0000 N   0  0  0  0  0  0  0  0  0  0  0  0
   -1.7619    0.9810    0.0000 C   0  0  0  0  0  0  0  0  0  0  0  0
   -2.4295    1.4659    0.0000 C   0  0  0  0  0  0  0  0  0  0  0  0
   -2.0170    0.1963    0.0000 C   0  0  0  0  0  0  0  0  0  0  0  0
   -3.0969    0.9809    0.0000 N   0  0  0  0  0  0  0  0  0  0  0  0
   -2.8421    0.1963    0.0000 N   0  0  0  0  0  0  0  0  0  0  0  0
   -1.5319   -0.4710    0.0000 O   0  0  0  0  0  0  0  0  0  0  0  0
   -2.4295    2.2909    0.0000 C   0  0  0  0  0  0  0  0  0  0  0  0
  1  2  2  0  0  0  0
  3  2  1  0  0  0  0
  3  8  1  0  0  0  0
  4  2  1  0  0  0  0
  4  7  2  0  0  0  0
  5  3  2  0  0  0  0
  6  4  1  0  0  0  0
  6  5  1  0  0  0  0
M  END
$$$$
C[C@@H]1CCCN1
 OpenBabel07182308452D

  7  7  0  0  0  0  0  0  0  0999 V2000
    2.4063   -0.0345    0.0000 N   0  0  0  0  0  0  0  0  0  0  0  0
    1.2169   -0.6405    0.0000 C   0  0  0  0  0  0  0  0  0  0  0  0
    1.8229    0.5488    0.0000 C   0  0  2  0  0  0  0  0  0  0  0  0
    1.9520    1.3637    0.0000 C   0  0  0  0  0  0  0  0  0  0  0  0
    1.0879    0.1743    0.0000 C   0  0  0  0  0  0  0  0  0  0  0  0
    2.0318   -0.7695    0.0000 C   0  0  0  0  0  0  0  0  0  0  0  0
    3.4137    0.1251    0.0000 H   0  0  0  0  0  0  0  0  0  0  0  0
  1  6  1  0  0  0  0
  1  3  1  0  0  0  0
  1  7  1  0  0  0  0
  3  5  1  0  0  0  0
  3  4  1  1  0  0  0
  5  2  1  0  0  0  0
  6  2  1  0  0  0  0
M  END
$$$$
NS(=O)(=O)N
 OpenBabel07182308452D

  8  7  0  0  0  0  0  0  0  0999 V2000
    2.8513    2.4741    0.0000 S   0  0  0  0  0  0  0  0  0  0  0  0
    2.7222    1.6593    0.0000 N   0  0  0  0  0  0  0  0  0  0  0  0
    2.9803    3.2890    0.0000 N   0  0  0  0  0  0  0  0  0  0  0  0
    2.0364    2.6032    0.0000 O   0  0  0  0  0  0  0  0  0  0  0  0
    3.6661    2.3451    0.0000 O   0  0  0  0  0  0  0  0  0  0  0  0
    3.5149    1.0173    0.0000 H   0  0  0  0  0  0  0  0  0  0  0  0
    3.9325    3.6546    0.0000 H   0  0  0  0  0  0  0  0  0  0  0  0
    2.1876    3.9308    0.0000 H   0  0  0  0  0  0  0  0  0  0  0  0
  1  2  1  0  0  0  0
  2  6  1  0  0  0  0
  3  1  1  0  0  0  0
  3  7  1  0  0  0  0
  3  8  1  0  0  0  0
  4  1  2  0  0  0  0
  5  1  2  0  0  0  0
M  END
$$$$
Clc1ccc2c(c1)[C@H](O)CCCN2
 OpenBabel07182308452D

 14 15  0  0  1  0  0  0  0  0999 V2000
    1.6500   -1.6941    0.0000 Cl  0  0  0  0  0  0  0  0  0  0  0  0
    2.0054    1.0865    0.0000 O   0  0  0  0  0  0  0  0  0  0  0  0
    4.4799    0.0986    0.0000 N   0  0  0  0  0  0  0  0  0  0  0  0
    3.3241    1.5479    0.0000 C   0  0  0  0  0  0  0  0  0  0  0  0
    4.1491    1.5479    0.0000 C   0  0  0  0  0  0  0  0  0  0  0  0
    2.8097    0.9029    0.0000 C   0  0  2  0  0  0  0  0  0  0  0  0
    4.6635    0.9029    0.0000 C   0  0  0  0  0  0  0  0  0  0  0  0
    2.9933    0.0986    0.0000 C   0  0  0  0  0  0  0  0  0  0  0  0
    3.7366   -0.2594    0.0000 C   0  0  0  0  0  0  0  0  0  0  0  0
    2.2759   -0.3746    0.0000 C   0  0  0  0  0  0  0  0  0  0  0  0
    3.8140   -1.1153    0.0000 C   0  0  0  0  0  0  0  0  0  0  0  0
    2.3335   -1.2319    0.0000 C   0  0  0  0  0  0  0  0  0  0  0  0
    3.1077   -1.6048    0.0000 C   0  0  0  0  0  0  0  0  0  0  0  0
    1.7195    2.0134    0.0000 H   0  0  0  0  0  0  0  0  0  0  0  0
  1 12  1  0  0  0  0
  2 14  1  0  0  0  0
  3  7  1  0  0  0  0
  3  9  1  0  0  0  0
  4  5  1  0  0  0  0
  4  6  1  0  0  0  0
  5  7  1  0  0  0  0
  6  2  1  6  0  0  0
  6  8  1  0  0  0  0
  8  9  2  0  0  0  0
  8 10  1  0  0  0  0
  9 11  1  0  0  0  0
 10 12  2  0  0  0  0
 11 13  2  0  0  0  0
 12 13  1  0  0  0  0
M  END
$$$$
Cc1cccc(c1)N
 OpenBabel07182308452D

  9  9  0  0  1  0  0  0  0  0999 V2000
    8.1969    0.7899    0.0000 N   0  0  0  0  0  0  0  0  0  0  0  0
    5.8929   -0.1144    0.0000 C   0  0  0  0  0  0  0  0  0  0  0  0
    6.5379   -0.6288    0.0000 C   0  0  0  0  0  0  0  0  0  0  0  0
    6.0158    0.7014    0.0000 C   0  0  0  0  0  0  0  0  0  0  0  0
    7.3059   -0.3274    0.0000 C   0  0  0  0  0  0  0  0  0  0  0  0
    7.4288    0.4884    0.0000 C   0  0  0  0  0  0  0  0  0  0  0  0
    6.7839    1.0028    0.0000 C   0  0  0  0  0  0  0  0  0  0  0  0
    6.4150   -1.4446    0.0000 C   0  0  0  0  0  0  0  0  0  0  0  0
    8.3436    1.7634    0.0000 H   0  0  0  0  0  0  0  0  0  0  0  0
  1  6  1  0  0  0  0
  1  9  1  0  0  0  0
  2  3  2  0  0  0  0
  2  4  1  0  0  0  0
  3  5  1  0  0  0  0
  3  8  1  0  0  0  0
  4  7  2  0  0  0  0
  5  6  2  0  0  0  0
  6  7  1  0  0  0  0
M  END
$$$$
[Fe+2]
 OpenBabel07182308452D

  1  0  0  0  0  0  0  0  0  0999 V2000
   -1.1785    0.8250    0.0000 Fe  0  2  0  0  0 15  0  0  0  0  0  0
M  CHG  1   1   2
M  END
$$$$
[Fe+3]
 OpenBabel07182308452D

  1  0  0  0  0  0  0  0  0  0999 V2000
    2.0035    0.8250    0.0000 Fe  0  1  0  0  0 15  0  0  0  0  0  0
M  CHG  1   1   3
M  END
$$$$
Clc1ccc2c(c1)C1CN(CC1c1c(O2)cccc1)C
 OpenBabel07182308452D

 20 23  0  0  0  0  0  0  0  0999 V2000
   -0.0041    0.0291    0.0000 C   0  0  3  0  0  0  0  0  0  0  0  0
    0.8209    0.0291    0.0000 C   0  0  3  0  0  0  0  0  0  0  0  0
   -0.5209    0.6750    0.0000 C   0  0  0  0  0  0  0  0  0  0  0  0
    0.4083    1.8376    0.0000 O   0  0  0  0  0  0  0  0  0  0  0  0
   -0.3333    1.4793    0.0000 C   0  0  0  0  0  0  0  0  0  0  0  0
    1.3335    0.6750    0.0000 C   0  0  0  0  0  0  0  0  0  0  0  0
    1.1459    1.4793    0.0000 C   0  0  0  0  0  0  0  0  0  0  0  0
    0.4083   -1.2377    0.0000 N   0  0  0  0  0  0  0  0  0  0  0  0
   -0.2583   -0.7501    0.0000 C   0  0  0  0  0  0  0  0  0  0  0  0
    1.0709   -0.7501    0.0000 C   0  0  0  0  0  0  0  0  0  0  0  0
   -1.3460    0.4750    0.0000 C   0  0  0  0  0  0  0  0  0  0  0  0
   -0.9209    2.0628    0.0000 C   0  0  0  0  0  0  0  0  0  0  0  0
   -1.9293    1.0542    0.0000 C   0  0  0  0  0  0  0  0  0  0  0  0
   -1.7168    1.8501    0.0000 C   0  0  0  0  0  0  0  0  0  0  0  0
   -2.7294    0.8417    0.0000 Cl  0  0  0  0  0  0  0  0  0  0  0  0
    0.4083   -2.0628    0.0000 C   0  0  0  0  0  0  0  0  0  0  0  0
    2.1211    0.4375    0.0000 C   0  0  0  0  0  0  0  0  0  0  0  0
    1.7543    2.0418    0.0000 C   0  0  0  0  0  0  0  0  0  0  0  0
    2.7294    1.0000    0.0000 C   0  0  0  0  0  0  0  0  0  0  0  0
    2.5461    1.8001    0.0000 C   0  0  0  0  0  0  0  0  0  0  0  0
  1  3  1  0  0  0  0
  1  9  1  0  0  0  0
  2  1  1  0  0  0  0
  2  6  1  0  0  0  0
  2 10  1  0  0  0  0
  4  5  1  0  0  0  0
  5  3  1  0  0  0  0
  7  6  2  0  0  0  0
  7  4  1  0  0  0  0
  8  9  1  0  0  0  0
  8 10  1  0  0  0  0
 11  3  2  0  0  0  0
 12  5  2  0  0  0  0
 13 11  1  0  0  0  0
 14 12  1  0  0  0  0
 14 13  2  0  0  0  0
 15 13  1  0  0  0  0
 16  8  1  0  0  0  0
 17  6  1  0  0  0  0
 18  7  1  0  0  0  0
 19 17  2  0  0  0  0
 19 20  1  0  0  0  0
 20 18  2  0  0  0  0
M  END
$$$$
O=C1COCCN1
 OpenBabel07182308452D

  7  7  0  0  0  0  0  0  0  0999 V2000
    7.6223    2.1328    0.0000 C   0  0  0  0  0  0  0  0  0  0  0  0
    7.0092    2.6848    0.0000 N   0  0  0  0  0  0  0  0  0  0  0  0
    8.4069    2.3878    0.0000 C   0  0  0  0  0  0  0  0  0  0  0  0
    7.1807    3.4918    0.0000 C   0  0  0  0  0  0  0  0  0  0  0  0
    8.5785    3.1947    0.0000 O   0  0  0  0  0  0  0  0  0  0  0  0
    7.9654    3.7468    0.0000 C   0  0  0  0  0  0  0  0  0  0  0  0
    6.5676    4.0438    0.0000 O   0  0  0  0  0  0  0  0  0  0  0  0
  1  2  1  0  0  0  0
  1  3  1  0  0  0  0
  2  4  1  0  0  0  0
  3  5  1  0  0  0  0
  4  6  1  0  0  0  0
  4  7  2  0  0  0  0
  5  6  1  0  0  0  0
M  END
$$$$
C[C@H]1CNC(=O)O1
 OpenBabel07182308452D

  8  8  0  0  0  0  0  0  0  0999 V2000
    3.8707    1.6651    0.0000 N   0  0  0  0  0  0  0  0  0  0  0  0
    3.6158    0.8805    0.0000 C   0  0  0  0  0  0  0  0  0  0  0  0
    3.2033    2.1500    0.0000 C   0  0  0  0  0  0  0  0  0  0  0  0
    2.7908    0.8805    0.0000 O   0  0  0  0  0  0  0  0  0  0  0  0
    2.5358    1.6651    0.0000 C   0  0  1  0  0  0  0  0  0  0  0  0
    4.1007    0.2130    0.0000 O   0  0  0  0  0  0  0  0  0  0  0  0
    1.7512    1.9200    0.0000 C   0  0  0  0  0  0  0  0  0  0  0  0
    2.4445    2.2418    0.0000 H   0  0  0  0  0  0  0  0  0  0  0  0
  1  2  1  0  0  0  0
  1  3  1  0  0  0  0
  2  4  1  0  0  0  0
  2  6  2  0  0  0  0
  3  5  1  0  0  0  0
  4  5  1  0  0  0  0
  5  7  1  0  0  0  0
  5  8  1  6  0  0  0
M  END
$$$$
C=C1CC[C@@]2([C@@]34[C@H]1Oc1c4c(C[C@H]2N(CC3)C)ccc1O)O
 OpenBabel07182308452D

 24 28  0  0  1  0  0  0  0  0999 V2000
    1.8588    2.8445    0.0000 O   0  0  0  0  0  0  0  0  0  0  0  0
    1.5421    2.0843    0.0000 C   0  0  0  0  0  0  0  0  0  0  0  0
    2.0613    1.4295    0.0000 C   0  0  0  0  0  0  0  0  0  0  0  0
    1.7504    0.6654    0.0000 C   0  0  0  0  0  0  0  0  0  0  0  0
    0.9273    0.5792    0.0000 C   0  0  0  0  0  0  0  0  0  0  0  0
    0.6287   -0.1680    0.0000 C   0  0  0  0  0  0  0  0  0  0  0  0
   -0.1878   -0.1784    0.0000 C   0  0  1  0  0  0  0  0  0  0  0  0
   -0.7306   -0.7655    0.0000 N   0  0  0  0  0  0  0  0  0  0  0  0
   -0.5933   -1.5773    0.0000 C   0  0  0  0  0  0  0  0  0  0  0  0
   -1.4506   -0.3821    0.0000 C   0  0  0  0  0  0  0  0  0  0  0  0
   -1.3082    0.5035    0.0000 C   0  0  0  0  0  0  0  0  0  0  0  0
   -0.4648    1.1011    0.0000 C   0  0  1  0  0  0  0  0  0  0  0  0
   -0.6792    1.9311    0.0000 C   0  0  1  0  0  0  0  0  0  0  0  0
   -0.0150    2.4329    0.0000 O   0  0  0  0  0  0  0  0  0  0  0  0
    0.6953    1.9902    0.0000 C   0  0  0  0  0  0  0  0  0  0  0  0
    0.4052    1.2240    0.0000 C   0  0  0  0  0  0  0  0  0  0  0  0
   -1.5035    2.0911    0.0000 C   0  0  0  0  0  0  0  0  0  0  0  0
   -1.7584    2.8741    0.0000 C   0  0  0  0  0  0  0  0  0  0  0  0
   -2.0613    1.4917    0.0000 C   0  0  0  0  0  0  0  0  0  0  0  0
   -1.7493    0.7522    0.0000 C   0  0  0  0  0  0  0  0  0  0  0  0
   -0.7773    0.6055    0.0000 C   0  0  1  0  0  0  0  0  0  0  0  0
   -1.1993   -0.1016    0.0000 O   0  0  0  0  0  0  0  0  0  0  0  0
    2.7880    2.9649    0.0000 H   0  0  0  0  0  0  0  0  0  0  0  0
   -2.1692   -0.0876    0.0000 H   0  0  0  0  0  0  0  0  0  0  0  0
  1  2  1  0  0  0  0
  1 23  1  0  0  0  0
  2  3  2  0  0  0  0
  2 15  1  0  0  0  0
  3  4  1  0  0  0  0
  4  5  2  0  0  0  0
  5  6  1  0  0  0  0
  5 16  1  0  0  0  0
  7  6  1  0  0  0  0
  7  8  1  0  0  0  0
  7 21  1  1  0  0  0
  8  9  1  0  0  0  0
  8 10  1  0  0  0  0
 10 11  1  0  0  0  0
 12 11  1  0  0  0  0
 12 16  1  0  0  0  0
 12 21  1  6  0  0  0
 13 12  1  6  0  0  0
 13 14  1  0  0  0  0
 13 17  1  0  0  0  0
 14 15  1  0  0  0  0
 15 16  2  0  0  0  0
 17 18  2  0  0  0  0
 17 19  1  0  0  0  0
 19 20  1  0  0  0  0
 21 20  1  0  0  0  0
 21 22  1  1  0  0  0
 22 24  1  0  0  0  0
M  END
$$$$
Clc1cc2[nH]cnc2cc1Cl
 OpenBabel07182308452D

 11 12  0  0  1  0  0  0  0  0999 V2000
    0.6538   -0.6979    0.0000 C   0  0  0  0  0  0  0  0  0  0  0  0
    1.1387   -0.0305    0.0000 N   0  0  0  0  0  0  0  0  0  0  0  0
    1.9233   -0.2854    0.0000 C   0  0  0  0  0  0  0  0  0  0  0  0
    2.6378    0.1271    0.0000 C   0  0  0  0  0  0  0  0  0  0  0  0
    3.3523   -0.2854    0.0000 C   0  0  0  0  0  0  0  0  0  0  0  0
    3.3523   -1.1104    0.0000 C   0  0  0  0  0  0  0  0  0  0  0  0
    2.6378   -1.5229    0.0000 C   0  0  0  0  0  0  0  0  0  0  0  0
    1.9233   -1.1104    0.0000 C   0  0  0  0  0  0  0  0  0  0  0  0
    1.1387   -1.3654    0.0000 N   0  0  0  0  0  0  0  0  0  0  0  0
    4.0668   -1.5229    0.0000 Cl  0  0  0  0  0  0  0  0  0  0  0  0
    4.0668    0.1271    0.0000 Cl  0  0  0  0  0  0  0  0  0  0  0  0
  1  2  2  0  0  0  0
  1  9  1  0  0  0  0
  2  3  1  0  0  0  0
  3  4  2  0  0  0  0
  3  8  1  0  0  0  0
  4  5  1  0  0  0  0
  5  6  2  0  0  0  0
  5 11  1  0  0  0  0
  6  7  1  0  0  0  0
  6 10  1  0  0  0  0
  7  8  2  0  0  0  0
  8  9  1  0  0  0  0
M  END
$$$$
Cc1ncccn1
 OpenBabel07182308452D

  7  7  0  0  1  0  0  0  0  0999 V2000
   12.0577   -8.3470    0.0000 C   0  0  0  0  0  0  0  0  0  0  0  0
   12.0577   -9.1740    0.0000 C   0  0  0  0  0  0  0  0  0  0  0  0
   12.7739   -9.5875    0.0000 N   0  0  0  0  0  0  0  0  0  0  0  0
   13.4902   -9.1740    0.0000 C   0  0  0  0  0  0  0  0  0  0  0  0
   13.4902   -8.3470    0.0000 N   0  0  0  0  0  0  0  0  0  0  0  0
   12.7739   -7.9335    0.0000 C   0  0  0  0  0  0  0  0  0  0  0  0
   14.2175   -9.5940    0.0000 C   0  0  0  0  0  0  0  0  0  0  0  0
  1  2  2  0  0  0  0
  1  6  1  0  0  0  0
  2  3  1  0  0  0  0
  3  4  2  0  0  0  0
  4  5  1  0  0  0  0
  4  7  1  0  0  0  0
  5  6  2  0  0  0  0
M  END
$$$$
Cc1cccc(c1)Cl
 OpenBabel07182308452D

  8  8  0  0  1  0  0  0  0  0999 V2000
   17.7419  -11.2762    0.0000 C   0  0  0  0  0  0  0  0  0  0  0  0
   18.4593  -10.8617    0.0000 C   0  0  0  0  0  0  0  0  0  0  0  0
   19.1528  -11.2619    0.0000 C   0  0  0  0  0  0  0  0  0  0  0  0
   19.8672  -10.8492    0.0000 C   0  0  0  0  0  0  0  0  0  0  0  0
   19.8670  -10.0242    0.0000 C   0  0  0  0  0  0  0  0  0  0  0  0
   19.1735   -9.6240    0.0000 C   0  0  0  0  0  0  0  0  0  0  0  0
   18.4591  -10.0367    0.0000 C   0  0  0  0  0  0  0  0  0  0  0  0
   20.5929  -11.2681    0.0000 Cl  0  0  0  0  0  0  0  0  0  0  0  0
  1  2  1  0  0  0  0
  2  3  2  0  0  0  0
  2  7  1  0  0  0  0
  3  4  1  0  0  0  0
  4  5  2  0  0  0  0
  4  8  1  0  0  0  0
  5  6  1  0  0  0  0
  6  7  2  0  0  0  0
M  END
$$$$
Oc1ccc2c(c1)scc2O
 OpenBabel07182308452D

 12 13  0  0  0  0  0  0  0  0999 V2000
   -0.6284   -0.6979    0.0000 C   0  0  0  0  0  0  0  0  0  0  0  0
   -0.1435   -1.3654    0.0000 C   0  0  0  0  0  0  0  0  0  0  0  0
    0.6411   -1.1104    0.0000 C   0  0  0  0  0  0  0  0  0  0  0  0
    0.6411   -0.2854    0.0000 C   0  0  0  0  0  0  0  0  0  0  0  0
   -0.1435   -0.0305    0.0000 S   0  0  0  0  0  0  0  0  0  0  0  0
    1.3556    0.1271    0.0000 C   0  0  0  0  0  0  0  0  0  0  0  0
    2.0701   -0.2854    0.0000 C   0  0  0  0  0  0  0  0  0  0  0  0
    2.0701   -1.1104    0.0000 C   0  0  0  0  0  0  0  0  0  0  0  0
    1.3556   -1.5229    0.0000 C   0  0  0  0  0  0  0  0  0  0  0  0
    2.7845    0.1271    0.0000 O   0  0  0  0  0  0  0  0  0  0  0  0
   -0.3984   -2.1500    0.0000 O   0  0  0  0  0  0  0  0  0  0  0  0
    3.5960   -0.3414    0.0000 H   0  0  0  0  0  0  0  0  0  0  0  0
  1  2  2  0  0  0  0
  1  5  1  0  0  0  0
  2  3  1  0  0  0  0
  2 11  1  0  0  0  0
  3  4  2  0  0  0  0
  3  9  1  0  0  0  0
  4  5  1  0  0  0  0
  4  6  1  0  0  0  0
  6  7  2  0  0  0  0
  7  8  1  0  0  0  0
  7 10  1  0  0  0  0
  8  9  2  0  0  0  0
 10 12  1  0  0  0  0
M  END
$$$$
CN1CCCC1C
 OpenBabel07182308452D

  7  7  0  0  1  0  0  0  0  0999 V2000
    2.2021   -1.1606    0.0000 N   0  0  0  0  0  0  0  0  0  0  0  0
    2.9558   -0.8250    0.0000 C   0  0  3  0  0  0  0  0  0  0  0  0
    2.8696   -0.0045    0.0000 C   0  0  0  0  0  0  0  0  0  0  0  0
    2.0625    0.1670    0.0000 C   0  0  0  0  0  0  0  0  0  0  0  0
    1.6500   -0.5475    0.0000 C   0  0  0  0  0  0  0  0  0  0  0  0
    3.6703   -1.2375    0.0000 C   0  0  0  0  0  0  0  0  0  0  0  0
    2.0305   -1.9676    0.0000 C   0  0  0  0  0  0  0  0  0  0  0  0
  1  2  1  0  0  0  0
  1  5  1  0  0  0  0
  1  7  1  0  0  0  0
  2  3  1  0  0  0  0
  2  6  1  0  0  0  0
  3  4  1  0  0  0  0
  4  5  1  0  0  0  0
M  END
$$$$
Cc1nn(c2c1[nH]cnc2=O)C
 OpenBabel07182308452D

 13 14  0  0  1  0  0  0  0  0999 V2000
    9.3861   -2.8876    0.0000 O   0  0  0  0  0  0  0  0  0  0  0  0
    9.3861   -0.4125    0.0000 N   0  0  0  0  0  0  0  0  0  0  0  0
   10.8812   -1.9014    0.0000 N   0  0  0  0  0  0  0  0  0  0  0  0
   11.3628   -1.2375    0.0000 N   0  0  0  0  0  0  0  0  0  0  0  0
    8.6717   -1.6500    0.0000 N   0  0  0  0  0  0  0  0  0  0  0  0
   10.1006   -0.8250    0.0000 C   0  0  0  0  0  0  0  0  0  0  0  0
    8.6717   -0.8250    0.0000 C   0  0  0  0  0  0  0  0  0  0  0  0
   10.8812   -0.5736    0.0000 C   0  0  0  0  0  0  0  0  0  0  0  0
   10.1006   -1.6500    0.0000 C   0  0  0  0  0  0  0  0  0  0  0  0
   11.1376    0.2106    0.0000 C   0  0  0  0  0  0  0  0  0  0  0  0
    9.3861   -2.0625    0.0000 C   0  0  0  0  0  0  0  0  0  0  0  0
   11.1376   -2.6857    0.0000 C   0  0  0  0  0  0  0  0  0  0  0  0
    9.3861    0.5720    0.0000 H   0  0  0  0  0  0  0  0  0  0  0  0
  1 11  2  0  0  0  0
  2  6  1  0  0  0  0
  2  7  1  0  0  0  0
  2 13  1  0  0  0  0
  3  4  1  0  0  0  0
  3  9  1  0  0  0  0
  3 12  1  0  0  0  0
  4  8  2  0  0  0  0
  5  7  2  0  0  0  0
  5 11  1  0  0  0  0
  6  8  1  0  0  0  0
  6  9  2  0  0  0  0
  8 10  1  0  0  0  0
  9 11  1  0  0  0  0
M  END
$$$$
Cc1cc2OCOc2cc1C
 OpenBabel07182308452D

 11 12  0  0  0  0  0  0  0  0999 V2000
    8.7349   -0.0663    0.0000 O   0  0  0  0  0  0  0  0  0  0  0  0
    8.7349   -1.3942    0.0000 O   0  0  0  0  0  0  0  0  0  0  0  0
    6.5253   -0.3178    0.0000 C   0  0  0  0  0  0  0  0  0  0  0  0
    5.8108    0.0947    0.0000 C   0  0  0  0  0  0  0  0  0  0  0  0
    6.5253   -1.1428    0.0000 C   0  0  0  0  0  0  0  0  0  0  0  0
    7.2398    0.0947    0.0000 C   0  0  0  0  0  0  0  0  0  0  0  0
    7.9542   -0.3178    0.0000 C   0  0  0  0  0  0  0  0  0  0  0  0
    7.9542   -1.1428    0.0000 C   0  0  0  0  0  0  0  0  0  0  0  0
    7.2398   -1.5553    0.0000 C   0  0  0  0  0  0  0  0  0  0  0  0
    5.8108   -1.5553    0.0000 C   0  0  0  0  0  0  0  0  0  0  0  0
    9.2164   -0.7303    0.0000 C   0  0  0  0  0  0  0  0  0  0  0  0
  1  7  1  0  0  0  0
  1 11  1  0  0  0  0
  2  8  1  0  0  0  0
  2 11  1  0  0  0  0
  3  4  1  0  0  0  0
  3  5  1  0  0  0  0
  3  6  2  0  0  0  0
  5  9  2  0  0  0  0
  5 10  1  0  0  0  0
  6  7  1  0  0  0  0
  7  8  2  0  0  0  0
  8  9  1  0  0  0  0
M  END
$$$$
Clc1conc1C
 OpenBabel07182308452D

  7  7  0  0  0  0  0  0  0  0999 V2000
    3.4449   -2.3243    0.0000 Cl  0  0  0  0  0  0  0  0  0  0  0  0
    2.5475   -0.3873    0.0000 O   0  0  0  0  0  0  0  0  0  0  0  0
    1.8801   -0.8722    0.0000 N   0  0  0  0  0  0  0  0  0  0  0  0
    3.2149   -0.8722    0.0000 C   0  0  0  0  0  0  0  0  0  0  0  0
    2.9600   -1.6569    0.0000 C   0  0  0  0  0  0  0  0  0  0  0  0
    2.1350   -1.6569    0.0000 C   0  0  0  0  0  0  0  0  0  0  0  0
    1.6500   -2.3243    0.0000 C   0  0  0  0  0  0  0  0  0  0  0  0
  1  5  1  0  0  0  0
  2  3  1  0  0  0  0
  2  4  1  0  0  0  0
  3  6  2  0  0  0  0
  4  5  2  0  0  0  0
  5  6  1  0  0  0  0
  6  7  1  0  0  0  0
M  END
$$$$
CN1CC[C@@H]([C@H](C1)C)C
 OpenBabel07182308452D

  9  9  0  0  1  0  0  0  0  0999 V2000
    3.0791    0.5000    0.0000 N   0  0  0  0  0  0  0  0  0  0  0  0
    3.0791    2.1500    0.0000 C   0  0  2  0  0  0  0  0  0  0  0  0
    2.3645    1.7375    0.0000 C   0  0  2  0  0  0  0  0  0  0  0  0
    3.7935    1.7375    0.0000 C   0  0  0  0  0  0  0  0  0  0  0  0
    2.3645    0.9125    0.0000 C   0  0  0  0  0  0  0  0  0  0  0  0
    3.7935    0.9125    0.0000 C   0  0  0  0  0  0  0  0  0  0  0  0
    2.6665    2.8645    0.0000 C   0  0  0  0  0  0  0  0  0  0  0  0
    1.6500    2.1500    0.0000 C   0  0  0  0  0  0  0  0  0  0  0  0
    3.0791   -0.3251    0.0000 C   0  0  0  0  0  0  0  0  0  0  0  0
  1  5  1  0  0  0  0
  1  6  1  0  0  0  0
  1  9  1  0  0  0  0
  2  3  1  0  0  0  0
  2  4  1  0  0  0  0
  2  7  1  1  0  0  0
  3  5  1  0  0  0  0
  3  8  1  6  0  0  0
  4  6  1  0  0  0  0
M  END
$$$$
O=C1NCC(=O)NCC(=O)N[C@H]2CSSC[C@@H]3NC(=O)[C@H](C)NC(=O)[C@H](C)NC(=O)CNC(=O)[C@@H](NC(=O)CNC(=O)[C@@H](NC(=O)[C@H](CSSC[C@@H](C(=O)NC1)NC(=O)[C@H](CSSCCNC(=O)[C@H](C)NC(=O)CNC(=O)CNC(=O)[C@@H](NC2=O)C)NC(=O)[C@H](C)NC(=O)[C@H](C)NC(=O)[C@H](C)NC(=O)[C@H](C)NC(=O)[C@@H](NC(=O)CNC3=O)C)N)C)C
 OpenBabel07182308452D

152154  0  0  1  0  0  0  0  0999 V2000
    1.6215    2.7926    0.0000 N   0  0  0  0  0  0  0  0  0  0  0  0
    2.4862    2.4501    0.0000 C   0  0  0  0  0  0  0  0  0  0  0  0
    0.1439    3.4411    0.0000 N   0  0  0  0  0  0  0  0  0  0  0  0
    8.4676    1.1710    0.0000 N   0  0  0  0  0  0  0  0  0  0  0  0
   -1.9099    3.8014    0.0000 N   0  0  0  0  0  0  0  0  0  0  0  0
    0.9006    2.2880    0.0000 C   0  0  0  0  0  0  0  0  0  0  0  0
  -13.3502    7.8550    0.0000 N   0  0  0  0  0  0  0  0  0  0  0  0
  -12.0711    7.1706    0.0000 N   0  0  0  0  0  0  0  0  0  0  0  0
   23.0068   -3.7655    0.0000 N   0  0  0  0  0  0  0  0  0  0  0  0
   14.3230   -1.0448    0.0000 N   0  0  0  0  0  0  0  0  0  0  0  0
   -0.5946    3.8014    0.0000 C   0  0  0  0  0  0  0  0  0  0  0  0
  -12.7015    6.7741    0.0000 C   0  0  0  0  0  0  0  0  0  0  0  0
   -3.2429    4.6662    0.0000 N   0  0  0  0  0  0  0  0  0  0  0  0
    9.4586   -0.4685    0.0000 C   0  0  0  0  0  0  0  0  0  0  0  0
   -5.1887    4.9905    0.0000 N   0  0  0  0  0  0  0  0  0  0  0  0
   -8.6660    6.1795    0.0000 N   0  0  0  0  0  0  0  0  0  0  0  0
    7.4947    1.4413    0.0000 C   0  0  0  0  0  0  0  0  0  0  0  0
  -10.7557    7.3145    0.0000 C   0  0  0  0  0  0  0  0  0  0  0  0
   10.7557   -0.1801    0.0000 N   0  0  0  0  0  0  0  0  0  0  0  0
  -10.0714    6.9902    0.0000 N   0  0  0  0  0  0  0  0  0  0  0  0
   -6.5940    5.7471    0.0000 N   0  0  0  0  0  0  0  0  0  0  0  0
  -23.6195   10.7737    0.0000 N   0  0  0  0  0  0  0  0  0  0  0  0
  -15.4582    8.2516    0.0000 N   0  0  0  0  0  0  0  0  0  0  0  0
   -2.5943    3.4411    0.0000 C   0  0  0  0  0  0  0  0  0  0  0  0
    0.1621    2.6845    0.0000 C   0  0  2  0  0  0  0  0  0  0  0  0
  -13.3502    7.1524    0.0000 C   0  0  2  0  0  0  0  0  0  0  0  0
   -1.2431    3.4231    0.0000 C   0  0  2  0  0  0  0  0  0  0  0  0
    8.5216    0.0719    0.0000 C   0  0  2  0  0  0  0  0  0  0  0  0
  -24.3223   11.0440    0.0000 C   0  0  0  0  0  0  0  0  0  0  0  0
   -3.8374    5.0627    0.0000 C   0  0  0  0  0  0  0  0  0  0  0  0
   -7.3148    6.1255    0.0000 C   0  0  0  0  0  0  0  0  0  0  0  0
  -14.0528    8.2516    0.0000 C   0  0  0  0  0  0  0  0  0  0  0  0
   13.0259   -0.6306    0.0000 C   0  0  0  0  0  0  0  0  0  0  0  0
   -5.8913    4.5580    0.0000 C   0  0  0  0  0  0  0  0  0  0  0  0
   21.8359   -4.3059    0.0000 C   0  0  0  0  0  0  0  0  0  0  0  0
   -9.3146    5.8012    0.0000 C   0  0  0  0  0  0  0  0  0  0  0  0
  -16.0526    7.8550    0.0000 C   0  0  0  0  0  0  0  0  0  0  0  0
  -11.3685    6.9363    0.0000 C   0  0  0  0  0  0  0  0  0  0  0  0
   24.1060   -4.4140    0.0000 C   0  0  0  0  0  0  0  0  0  0  0  0
    3.2429    2.8284    0.0000 C   0  0  0  0  0  0  0  0  0  0  0  0
    6.5400    0.9367    0.0000 C   0  0  0  0  0  0  0  0  0  0  0  0
   14.3771   -2.3062    0.0000 C   0  0  0  0  0  0  0  0  0  0  0  0
    5.7832    1.5312    0.0000 N   0  0  0  0  0  0  0  0  0  0  0  0
   -3.2429    3.8554    0.0000 C   0  0  2  0  0  0  0  0  0  0  0  0
   15.7642   -2.7926    0.0000 C   0  0  0  0  0  0  0  0  0  0  0  0
  -16.7735    9.0442    0.0000 N   0  0  0  0  0  0  0  0  0  0  0  0
   20.3044   -2.8285    0.0000 N   0  0  0  0  0  0  0  0  0  0  0  0
  -20.2144    9.9271    0.0000 N   0  0  0  0  0  0  0  0  0  0  0  0
   -4.5043    4.6662    0.0000 C   0  0  2  0  0  0  0  0  0  0  0  0
   -7.9993    5.7471    0.0000 C   0  0  2  0  0  0  0  0  0  0  0  0
  -22.8629    9.5846    0.0000 C   0  0  0  0  0  0  0  0  0  0  0  0
  -19.4037    8.8820    0.0000 C   0  0  0  0  0  0  0  0  0  0  0  0
    3.9996    2.4501    0.0000 N   0  0  0  0  0  0  0  0  0  0  0  0
   16.6289   -2.1259    0.0000 N   0  0  0  0  0  0  0  0  0  0  0  0
  -22.3223   10.0351    0.0000 N   0  0  0  0  0  0  0  0  0  0  0  0
  -18.7732    9.2786    0.0000 N   0  0  0  0  0  0  0  0  0  0  0  0
   -3.8916    3.4952    0.0000 C   0  0  0  0  0  0  0  0  0  0  0  0
  -25.0991   10.6650    0.0000 C   0  0  2  0  0  0  0  0  0  0  0  0
   -6.5940    4.9364    0.0000 C   0  0  2  0  0  0  0  0  0  0  0  0
  -10.0714    6.1795    0.0000 C   0  0  2  0  0  0  0  0  0  0  0  0
  -14.6655    7.8550    0.0000 C   0  0  2  0  0  0  0  0  0  0  0  0
   11.6746   -1.0448    0.0000 C   0  0  2  0  0  0  0  0  0  0  0  0
    4.9185    0.9908    0.0000 C   0  0  0  0  0  0  0  0  0  0  0  0
  -20.9711   10.2514    0.0000 C   0  0  0  0  0  0  0  0  0  0  0  0
   18.9712   -2.0359    0.0000 C   0  0  0  0  0  0  0  0  0  0  0  0
  -17.4579    9.3866    0.0000 C   0  0  0  0  0  0  0  0  0  0  0  0
  -16.7194    8.2516    0.0000 C   0  0  1  0  0  0  0  0  0  0  0  0
   20.3767   -3.8014    0.0000 C   0  0  1  0  0  0  0  0  0  0  0  0
  -23.5655    9.9271    0.0000 C   0  0  2  0  0  0  0  0  0  0  0  0
  -20.1604    9.1704    0.0000 C   0  0  2  0  0  0  0  0  0  0  0  0
   -1.6754  -11.7107    0.0000 S   0  0  0  0  0  0  0  0  0  0  0  0
    7.6568   -2.4143    0.0000 S   0  0  0  0  0  0  0  0  0  0  0  0
   -0.5404   -0.7927    0.0000 S   0  0  0  0  0  0  0  0  0  0  0  0
  -14.0528   -2.5224    0.0000 S   0  0  0  0  0  0  0  0  0  0  0  0
   21.7279  -11.7107    0.0000 S   0  0  0  0  0  0  0  0  0  0  0  0
  -26.5382   -0.7388    0.0000 S   0  0  0  0  0  0  0  0  0  0  0  0
    0.9006    1.4231    0.0000 O   0  0  0  0  0  0  0  0  0  0  0  0
  -12.7015    5.9094    0.0000 O   0  0  0  0  0  0  0  0  0  0  0  0
    9.4586   -1.2610    0.0000 O   0  0  0  0  0  0  0  0  0  0  0  0
   -0.5946    4.5580    0.0000 O   0  0  0  0  0  0  0  0  0  0  0  0
    7.4947    2.2338    0.0000 O   0  0  0  0  0  0  0  0  0  0  0  0
  -10.7557    8.1435    0.0000 O   0  0  0  0  0  0  0  0  0  0  0  0
  -24.3223   11.7107    0.0000 O   0  0  0  0  0  0  0  0  0  0  0  0
   -7.3148    6.8822    0.0000 O   0  0  0  0  0  0  0  0  0  0  0  0
   -3.8916    5.8552    0.0000 O   0  0  0  0  0  0  0  0  0  0  0  0
   -2.5943    2.5764    0.0000 O   0  0  0  0  0  0  0  0  0  0  0  0
   13.0259    0.2882    0.0000 O   0  0  0  0  0  0  0  0  0  0  0  0
   21.8359   -5.4951    0.0000 O   0  0  0  0  0  0  0  0  0  0  0  0
  -16.0526    7.1524    0.0000 O   0  0  0  0  0  0  0  0  0  0  0  0
   -9.3146    5.0627    0.0000 O   0  0  0  0  0  0  0  0  0  0  0  0
   -5.8913    4.0716    0.0000 O   0  0  0  0  0  0  0  0  0  0  0  0
  -14.0528    9.0442    0.0000 O   0  0  0  0  0  0  0  0  0  0  0  0
   -4.5043    3.4411    0.0000 C   0  0  0  0  0  0  0  0  0  0  0  0
    3.2429    3.8014    0.0000 O   0  0  0  0  0  0  0  0  0  0  0  0
   15.7642   -3.7655    0.0000 O   0  0  0  0  0  0  0  0  0  0  0  0
  -14.0528    6.7201    0.0000 C   0  0  0  0  0  0  0  0  0  0  0  0
   -1.6215    2.5582    0.0000 C   0  0  0  0  0  0  0  0  0  0  0  0
   -0.4864    2.2338    0.0000 C   0  0  0  0  0  0  0  0  0  0  0  0
    7.6568   -0.4685    0.0000 C   0  0  0  0  0  0  0  0  0  0  0  0
  -22.8629    8.7198    0.0000 O   0  0  0  0  0  0  0  0  0  0  0  0
  -19.4037    8.1253    0.0000 O   0  0  0  0  0  0  0  0  0  0  0  0
   24.1060   -5.7113    0.0000 C   0  0  0  0  0  0  0  0  0  0  0  0
   -8.0533    4.9364    0.0000 C   0  0  0  0  0  0  0  0  0  0  0  0
   17.7100   -2.8285    0.0000 C   0  0  0  0  0  0  0  0  0  0  0  0
  -21.5117    9.7467    0.0000 C   0  0  0  0  0  0  0  0  0  0  0  0
    3.9996    1.4413    0.0000 C   0  0  0  0  0  0  0  0  0  0  0  0
  -18.0525    8.9001    0.0000 C   0  0  0  0  0  0  0  0  0  0  0  0
    4.9185    0.1260    0.0000 O   0  0  0  0  0  0  0  0  0  0  0  0
  -20.9711   10.9540    0.0000 O   0  0  0  0  0  0  0  0  0  0  0  0
   18.9712   -0.9909    0.0000 O   0  0  0  0  0  0  0  0  0  0  0  0
  -17.4579   10.1792    0.0000 O   0  0  0  0  0  0  0  0  0  0  0  0
  -26.4654   10.9140    0.0000 C   0  0  0  0  0  0  0  0  0  0  0  0
  -25.0547    9.9861    0.0000 N   0  0  0  0  0  0  0  0  0  0  0  0
   -7.2066    4.5580    0.0000 C   0  0  0  0  0  0  0  0  0  0  0  0
  -14.6655    7.0624    0.0000 C   0  0  0  0  0  0  0  0  0  0  0  0
  -10.7018    5.8012    0.0000 C   0  0  0  0  0  0  0  0  0  0  0  0
   11.1341   -2.2880    0.0000 C   0  0  0  0  0  0  0  0  0  0  0  0
   19.2416   -4.5580    0.0000 C   0  0  0  0  0  0  0  0  0  0  0  0
  -24.1782    9.5306    0.0000 C   0  0  0  0  0  0  0  0  0  0  0  0
  -20.7549    8.7198    0.0000 C   0  0  0  0  0  0  0  0  0  0  0  0
  -17.4040    7.8550    0.0000 C   0  0  0  0  0  0  0  0  0  0  0  0
    7.8080    0.4694    0.0000 H   0  0  0  0  0  0  0  0  0  0  0  0
   -1.2609    4.3381    0.0000 H   0  0  0  0  0  0  0  0  0  0  0  0
  -12.6466    7.7013    0.0000 H   0  0  0  0  0  0  0  0  0  0  0  0
   -0.6838    2.9640    0.0000 H   0  0  0  0  0  0  0  0  0  0  0  0
    2.4845    3.4483    0.0000 H   0  0  0  0  0  0  0  0  0  0  0  0
    1.5068    3.7704    0.0000 H   0  0  0  0  0  0  0  0  0  0  0  0
    0.9725    3.9728    0.0000 H   0  0  0  0  0  0  0  0  0  0  0  0
    9.2365    1.7858    0.0000 H   0  0  0  0  0  0  0  0  0  0  0  0
   -1.8944    4.7858    0.0000 H   0  0  0  0  0  0  0  0  0  0  0  0
  -12.5000    8.3514    0.0000 H   0  0  0  0  0  0  0  0  0  0  0  0
  -12.1887    8.1480    0.0000 H   0  0  0  0  0  0  0  0  0  0  0  0
   23.0563   -2.7822    0.0000 H   0  0  0  0  0  0  0  0  0  0  0  0
   15.1054   -0.4472    0.0000 H   0  0  0  0  0  0  0  0  0  0  0  0
   -2.3748    5.1307    0.0000 H   0  0  0  0  0  0  0  0  0  0  0  0
   -5.2425    5.9735    0.0000 H   0  0  0  0  0  0  0  0  0  0  0  0
   -8.6427    7.1637    0.0000 H   0  0  0  0  0  0  0  0  0  0  0  0
   11.0165    0.7692    0.0000 H   0  0  0  0  0  0  0  0  0  0  0  0
   -9.2394    7.5166    0.0000 H   0  0  0  0  0  0  0  0  0  0  0  0
   -5.7515    6.2564    0.0000 H   0  0  0  0  0  0  0  0  0  0  0  0
  -22.8261   11.3566    0.0000 H   0  0  0  0  0  0  0  0  0  0  0  0
  -15.5194    9.2342    0.0000 H   0  0  0  0  0  0  0  0  0  0  0  0
    5.8360    2.5143    0.0000 H   0  0  0  0  0  0  0  0  0  0  0  0
  -15.9541    9.5899    0.0000 H   0  0  0  0  0  0  0  0  0  0  0  0
   21.1415   -2.3103    0.0000 H   0  0  0  0  0  0  0  0  0  0  0  0
  -19.4123   10.4980    0.0000 H   0  0  0  0  0  0  0  0  0  0  0  0
    4.8371    2.9677    0.0000 H   0  0  0  0  0  0  0  0  0  0  0  0
   16.5893   -1.1422    0.0000 H   0  0  0  0  0  0  0  0  0  0  0  0
  -22.4951   11.0043    0.0000 H   0  0  0  0  0  0  0  0  0  0  0  0
  -18.8115   10.2624    0.0000 H   0  0  0  0  0  0  0  0  0  0  0  0
  -25.9029    9.4195    0.0000 H   0  0  0  0  0  0  0  0  0  0  0  0
  -24.1400    9.5348    0.0000 H   0  0  0  0  0  0  0  0  0  0  0  0
  1127  1  0  0  0  0
  2  1  1  0  0  0  0
  2126  1  0  0  0  0
  3128  1  0  0  0  0
  4 17  1  0  0  0  0
  4129  1  0  0  0  0
  5130  1  0  0  0  0
  6  1  1  0  0  0  0
  7131  1  0  0  0  0
  8 12  1  0  0  0  0
  8132  1  0  0  0  0
  9133  1  0  0  0  0
 10 33  1  0  0  0  0
 10134  1  0  0  0  0
 11  3  1  0  0  0  0
 12 26  1  0  0  0  0
 13135  1  0  0  0  0
 14 28  1  0  0  0  0
 15136  1  0  0  0  0
 16137  1  0  0  0  0
 17 41  1  0  0  0  0
 18 38  1  0  0  0  0
 19 14  1  0  0  0  0
 19138  1  0  0  0  0
 20 18  1  0  0  0  0
 20139  1  0  0  0  0
 21140  1  0  0  0  0
 22 29  1  0  0  0  0
 22141  1  0  0  0  0
 23142  1  0  0  0  0
 24  5  1  0  0  0  0
 25  3  1  0  0  0  0
 25  6  1  0  0  0  0
 25125  1  1  0  0  0
 26  7  1  0  0  0  0
 26 96  1  0  0  0  0
 26124  1  1  0  0  0
 27  5  1  0  0  0  0
 27 11  1  0  0  0  0
 27123  1  1  0  0  0
 28  4  1  0  0  0  0
 28122  1  1  0  0  0
 29 58  1  0  0  0  0
 30 13  1  0  0  0  0
 31 21  1  0  0  0  0
 32  7  1  0  0  0  0
 33 62  1  0  0  0  0
 34 15  1  0  0  0  0
 35  9  1  0  0  0  0
 36 16  1  0  0  0  0
 37 23  1  0  0  0  0
 38  8  1  0  0  0  0
 39  9  1  0  0  0  0
 39102  1  0  0  0  0
 40  2  1  0  0  0  0
 41 43  1  0  0  0  0
 42 10  1  0  0  0  0
 43 63  1  0  0  0  0
 43143  1  0  0  0  0
 44 13  1  0  0  0  0
 44 24  1  0  0  0  0
 44 57  1  6  0  0  0
 45 42  1  0  0  0  0
 46 66  1  0  0  0  0
 46144  1  0  0  0  0
 47145  1  0  0  0  0
 48 64  1  0  0  0  0
 48146  1  0  0  0  0
 49 15  1  0  0  0  0
 49 30  1  0  0  0  0
 49 93  1  6  0  0  0
 50 16  1  0  0  0  0
 50 31  1  0  0  0  0
 50103  1  6  0  0  0
 51 69  1  0  0  0  0
 52 70  1  0  0  0  0
 53 40  1  0  0  0  0
 53147  1  0  0  0  0
 54104  1  0  0  0  0
 54 45  1  0  0  0  0
 54148  1  0  0  0  0
 55 51  1  0  0  0  0
 55149  1  0  0  0  0
 56 52  1  0  0  0  0
 56150  1  0  0  0  0
 58112  1  0  0  0  0
 58113  1  1  0  0  0
 59 21  1  0  0  0  0
 59 34  1  0  0  0  0
 59114  1  6  0  0  0
 60 36  1  0  0  0  0
 60116  1  6  0  0  0
 60 20  1  0  0  0  0
 61 23  1  0  0  0  0
 61 32  1  0  0  0  0
 61115  1  6  0  0  0
 62 19  1  0  0  0  0
 62117  1  6  0  0  0
 63106  1  0  0  0  0
 64105  1  0  0  0  0
 65 47  1  0  0  0  0
 66107  1  0  0  0  0
 67 37  1  0  0  0  0
 67121  1  6  0  0  0
 67 46  1  0  0  0  0
 68 47  1  0  0  0  0
 68 35  1  0  0  0  0
 68118  1  6  0  0  0
 69 22  1  0  0  0  0
 69119  1  6  0  0  0
 70 48  1  0  0  0  0
 70120  1  6  0  0  0
 71 97  1  0  0  0  0
 72 99  1  0  0  0  0
 73 98  1  0  0  0  0
 74 72  1  0  0  0  0
 75 71  1  0  0  0  0
 76 73  1  0  0  0  0
 77  6  2  0  0  0  0
 78 12  2  0  0  0  0
 79 14  2  0  0  0  0
 80 11  2  0  0  0  0
 81 17  2  0  0  0  0
 82 18  2  0  0  0  0
 83 29  2  0  0  0  0
 84 31  2  0  0  0  0
 85 30  2  0  0  0  0
 86 24  2  0  0  0  0
 87 33  2  0  0  0  0
 88 35  2  0  0  0  0
 89 37  2  0  0  0  0
 90 36  2  0  0  0  0
 91 34  2  0  0  0  0
 92 32  2  0  0  0  0
 94 40  2  0  0  0  0
 95 45  2  0  0  0  0
 96 74  1  0  0  0  0
 97 27  1  0  0  0  0
 98 25  1  0  0  0  0
 99 28  1  0  0  0  0
100 51  2  0  0  0  0
101 52  2  0  0  0  0
102 75  1  0  0  0  0
104 65  1  0  0  0  0
105 55  1  0  0  0  0
106 53  1  0  0  0  0
107 56  1  0  0  0  0
108 63  2  0  0  0  0
109 64  2  0  0  0  0
110 65  2  0  0  0  0
111 66  2  0  0  0  0
112 76  1  0  0  0  0
113151  1  0  0  0  0
113152  1  0  0  0  0
M  END
$$$$
O[C@@H]1C[C@@H]2[C@@H](C1)C(=O)N(C)CCCC/C=C\[C@H]1C(NC2=O)C1
 OpenBabel07182308452D

 26 28  0  0  0  0  0  0  0  0999 V2000
   -2.8810   -1.4620    0.0000 C   0  0  0  0  0  0  0  0  0  0  0  0
   -2.8810   -0.6443    0.0000 N   0  0  0  0  0  0  0  0  0  0  0  0
   -2.1719   -1.0531    0.0000 C   0  0  0  0  0  0  0  0  0  0  0  0
   -2.1719   -1.8755    0.0000 O   0  0  0  0  0  0  0  0  0  0  0  0
   -1.4533   -0.6444    0.0000 C   0  0  2  0  0  0  0  0  0  0  0  0
   -1.3648   -1.4589    0.0000 H   0  0  0  0  0  0  0  0  0  0  0  0
   -0.6675   -0.8941    0.0000 C   0  0  0  0  0  0  0  0  0  0  0  0
   -0.1850   -0.2263    0.0000 C   0  0  2  0  0  0  0  0  0  0  0  0
    0.6374   -0.2263    0.0000 O   0  0  0  0  0  0  0  0  0  0  0  0
   -0.6673    0.4327    0.0000 C   0  0  0  0  0  0  0  0  0  0  0  0
   -1.4533    0.1781    0.0000 C   0  0  1  0  0  0  0  0  0  0  0  0
   -1.3647    1.0022    0.0000 H   0  0  0  0  0  0  0  0  0  0  0  0
   -2.1719    0.5917    0.0000 C   0  0  0  0  0  0  0  0  0  0  0  0
   -2.1719    1.4191    0.0000 O   0  0  0  0  0  0  0  0  0  0  0  0
   -2.8659    0.1631    0.0000 N   0  0  0  0  0  0  0  0  0  0  0  0
   -3.5901    0.5917    0.0000 C   0  0  3  0  0  0  0  0  0  0  0  0
   -4.2001    1.0269    0.0000 C   0  0  0  0  0  0  0  0  0  0  0  0
   -4.3041    0.1783    0.0000 C   0  0  1  0  0  0  0  0  0  0  0  0
   -4.8946   -0.3127    0.0000 H   0  0  0  0  0  0  0  0  0  0  0  0
   -5.0227    0.5919    0.0000 C   0  0  0  0  0  0  0  0  0  0  0  0
   -5.7269    0.1783    0.0000 C   0  0  0  0  0  0  0  0  0  0  0  0
   -5.7269   -0.6442    0.0000 C   0  0  0  0  0  0  0  0  0  0  0  0
   -5.0227   -1.0530    0.0000 C   0  0  0  0  0  0  0  0  0  0  0  0
   -4.3041   -0.6442    0.0000 C   0  0  0  0  0  0  0  0  0  0  0  0
   -3.5901   -1.0530    0.0000 C   0  0  0  0  0  0  0  0  0  0  0  0
   -2.8566   -0.8214    0.0000 H   0  0  0  0  0  0  0  0  0  0  0  0
  2  1  1  0  0  0  0
  2  3  1  0  0  0  0
  3  4  2  0  0  0  0
  3  5  1  0  0  0  0
  5  6  1  0  0  0  0
  5  7  1  0  0  0  0
  5 11  1  6  0  0  0
  8  7  1  0  0  0  0
  8  9  1  1  0  0  0
 10  8  1  0  0  0  0
 11 10  1  0  0  0  0
 11 12  1  1  0  0  0
 11 13  1  0  0  0  0
 13 14  2  0  0  0  0
 15 13  1  0  0  0  0
 15 16  1  0  0  0  0
 15 26  1  0  0  0  0
 16 17  1  0  0  0  0
 18 17  1  0  0  0  0
 18 19  1  1  0  0  0
 18 20  1  0  0  0  0
 18 16  1  0  0  0  0
 21 20  2  0  0  0  0
 21 22  1  0  0  0  0
 22 23  1  0  0  0  0
 23 24  1  0  0  0  0
 24 25  1  0  0  0  0
 25  2  1  0  0  0  0
M  END
$$$$
Cc1cccc2c1nccc2
 OpenBabel07182308452D

 11 12  0  0  0  0  0  0  0  0999 V2000
    1.0066   -0.9644    0.0000 C   0  0  0  0  0  0  0  0  0  0  0  0
    0.5530   -1.6602    0.0000 C   0  0  0  0  0  0  0  0  0  0  0  0
   -0.2781   -1.6602    0.0000 C   0  0  0  0  0  0  0  0  0  0  0  0
   -0.7208   -2.3091    0.0000 C   0  0  0  0  0  0  0  0  0  0  0  0
   -0.3457   -3.0418    0.0000 C   0  0  0  0  0  0  0  0  0  0  0  0
    0.4763   -3.0418    0.0000 C   0  0  0  0  0  0  0  0  0  0  0  0
    0.8874   -3.7594    0.0000 C   0  0  0  0  0  0  0  0  0  0  0  0
    0.9242   -2.3911    0.0000 C   0  0  0  0  0  0  0  0  0  0  0  0
    1.7492   -2.4415    0.0000 N   0  0  0  0  0  0  0  0  0  0  0  0
    2.1977   -1.7532    0.0000 C   0  0  0  0  0  0  0  0  0  0  0  0
    1.8288   -1.0203    0.0000 C   0  0  0  0  0  0  0  0  0  0  0  0
  1  2  1  0  0  0  0
  2  3  1  0  0  0  0
  2  8  2  0  0  0  0
  3  4  2  0  0  0  0
  4  5  1  0  0  0  0
  5  6  2  0  0  0  0
  6  7  1  0  0  0  0
  8  6  1  0  0  0  0
  8  9  1  0  0  0  0
  9 10  2  0  0  0  0
 10 11  1  0  0  0  0
 11  1  2  0  0  0  0
M  END
$$$$
Cc1ccccc1Cl
 OpenBabel07182308452D

  8  8  0  0  0  0  0  0  0  0999 V2000
    8.3189  -24.2604    0.0000 C   0  0  0  0  0  0  0  0  0  0  0  0
    9.0288  -24.6788    0.0000 C   0  0  0  0  0  0  0  0  0  0  0  0
    9.7439  -24.2691    0.0000 C   0  0  0  0  0  0  0  0  0  0  0  0
    9.7468  -23.4432    0.0000 C   0  0  0  0  0  0  0  0  0  0  0  0
    9.0285  -23.0288    0.0000 C   0  0  0  0  0  0  0  0  0  0  0  0
    8.3163  -23.4409    0.0000 C   0  0  0  0  0  0  0  0  0  0  0  0
   10.4619  -23.0319    0.0000 Cl  0  0  0  0  0  0  0  0  0  0  0  0
   10.4570  -24.6840    0.0000 C   0  0  0  0  0  0  0  0  0  0  0  0
  1  2  2  0  0  0  0
  2  3  1  0  0  0  0
  3  4  2  0  0  0  0
  3  8  1  0  0  0  0
  4  5  1  0  0  0  0
  4  7  1  0  0  0  0
  5  6  2  0  0  0  0
  6  1  1  0  0  0  0
M  END
$$$$
N#C[C@@H]1C[C@H]2[C@@H](N1)C2
 OpenBabel07182308452D

 10 11  0  0  0  0  0  0  0  0999 V2000
    0.3229    0.3605    0.0000 N   0  0  0  0  0  0  0  0  0  0  0  0
    0.5803   -0.4542    0.0000 C   0  0  2  0  0  0  0  0  0  0  0  0
    1.4379   -0.4542    0.0000 C   0  0  2  0  0  0  0  0  0  0  0  0
    1.6953    0.4033    0.0000 C   0  0  0  0  0  0  0  0  0  0  0  0
    0.9662    0.8321    0.0000 C   0  0  1  0  0  0  0  0  0  0  0  0
    0.9662    1.6898    0.0000 C   0  0  0  0  0  0  0  0  0  0  0  0
    0.9662    2.5473    0.0000 N   0  0  0  0  0  0  0  0  0  0  0  0
    1.0091   -1.1833    0.0000 C   0  0  0  0  0  0  0  0  0  0  0  0
    2.2955   -0.4542    0.0000 H   0  0  0  0  0  0  0  0  0  0  0  0
   -0.2342   -0.4542    0.0000 H   0  0  0  0  0  0  0  0  0  0  0  0
  1  2  1  0  0  0  0
  1  5  1  0  0  0  0
  2  3  1  1  0  0  0
  2 10  1  0  0  0  0
  3  4  1  0  0  0  0
  3  8  1  0  0  0  0
  3  9  1  1  0  0  0
  4  5  1  0  0  0  0
  5  6  1  6  0  0  0
  6  7  3  0  0  0  0
  8  2  1  0  0  0  0
M  END
$$$$
OC12CC3CC(C2)CC(C1)C3
 OpenBabel07182308452D

 12 14  0  0  0  0  0  0  0  0999 V2000
   -1.1348   -0.4972    0.0000 C   0  0  3  0  0  0  0  0  0  0  0  0
   -1.8490   -0.9095    0.0000 C   0  0  0  0  0  0  0  0  0  0  0  0
   -1.8490   -1.7344    0.0000 C   0  0  3  0  0  0  0  0  0  0  0  0
   -0.4204   -1.7344    0.0000 C   0  0  3  0  0  0  0  0  0  0  0  0
   -1.1348   -2.1468    0.0000 C   0  0  0  0  0  0  0  0  0  0  0  0
   -1.5812   -2.2137    0.0000 C   0  0  3  0  0  0  0  0  0  0  0  0
   -1.5812   -1.3890    0.0000 C   0  0  0  0  0  0  0  0  0  0  0  0
   -0.4204   -0.9095    0.0000 C   0  0  0  0  0  0  0  0  0  0  0  0
   -2.2955   -2.5473    0.0000 C   0  0  0  0  0  0  0  0  0  0  0  0
   -0.8270   -2.5473    0.0000 C   0  0  0  0  0  0  0  0  0  0  0  0
    0.2938   -2.1468    0.0000 O   0  0  0  0  0  0  0  0  0  0  0  0
    0.2937   -3.1168    0.0000 H   0  0  0  0  0  0  0  0  0  0  0  0
  1  2  1  0  0  0  0
  1  8  1  0  0  0  0
  1  7  1  0  0  0  0
  2  3  1  0  0  0  0
  3  5  1  0  0  0  0
  4  8  1  0  0  0  0
  4  5  1  0  0  0  0
  4 11  1  0  0  0  0
  6  7  1  0  0  0  0
  9  6  1  0  0  0  0
  9  3  1  0  0  0  0
 10  4  1  0  0  0  0
 10  6  1  0  0  0  0
 11 12  1  0  0  0  0
M  END
$$$$
Oc1ccc2c(c1)c(C)cn2C
 OpenBabel07182308452D

 13 14  0  0  0  0  0  0  0  0999 V2000
    1.0881   -1.0518    0.0000 N   0  0  0  0  0  0  0  0  0  0  0  0
    1.5802   -1.7178    0.0000 C   0  0  0  0  0  0  0  0  0  0  0  0
    1.0881   -2.3836    0.0000 C   0  0  0  0  0  0  0  0  0  0  0  0
    0.3064   -2.1327    0.0000 C   0  0  0  0  0  0  0  0  0  0  0  0
    0.3064   -1.3076    0.0000 C   0  0  0  0  0  0  0  0  0  0  0  0
    1.3486   -0.2653    0.0000 C   0  0  0  0  0  0  0  0  0  0  0  0
   -0.4029   -0.8927    0.0000 C   0  0  0  0  0  0  0  0  0  0  0  0
   -0.4029   -2.5429    0.0000 C   0  0  0  0  0  0  0  0  0  0  0  0
   -1.1170   -2.1327    0.0000 C   0  0  0  0  0  0  0  0  0  0  0  0
    1.3486   -3.1653    0.0000 C   0  0  0  0  0  0  0  0  0  0  0  0
   -1.1170   -1.3076    0.0000 C   0  0  0  0  0  0  0  0  0  0  0  0
   -1.8359   -2.5429    0.0000 O   0  0  0  0  0  0  0  0  0  0  0  0
   -2.6450   -2.0703    0.0000 H   0  0  0  0  0  0  0  0  0  0  0  0
  2  1  1  0  0  0  0
  3  2  2  0  0  0  0
  3  4  1  0  0  0  0
  4  5  2  0  0  0  0
  5  1  1  0  0  0  0
  6  1  1  0  0  0  0
  7  5  1  0  0  0  0
  8  4  1  0  0  0  0
  8  9  2  0  0  0  0
  9 11  1  0  0  0  0
 10  3  1  0  0  0  0
 11  7  2  0  0  0  0
 12  9  1  0  0  0  0
 12 13  1  0  0  0  0
M  END
$$$$
O/C=C\1/C[C@@]2(C)[C@H](CC1=O)CC[C@@H]1[C@@H]2CC[C@]2([C@H]1CC[C@]2(C)O)C
 OpenBabel07182308452D

 30 33  0  0  0  0  0  0  0  0999 V2000
    0.3452   -0.0868    0.0000 C   0  0  1  0  0  0  0  0  0  0  0  0
    1.0569   -0.5047    0.0000 C   0  0  2  0  0  0  0  0  0  0  0  0
   -0.3735   -0.4976    0.0000 C   0  0  2  0  0  0  0  0  0  0  0  0
    0.3523    0.7382    0.0000 C   0  0  0  0  0  0  0  0  0  0  0  0
    1.7686   -0.0939    0.0000 C   0  0  1  0  0  0  0  0  0  0  0  0
    1.0569   -1.3297    0.0000 C   0  0  0  0  0  0  0  0  0  0  0  0
   -0.3770   -1.3226    0.0000 C   0  0  1  0  0  0  0  0  0  0  0  0
   -1.0853   -0.0832    0.0000 C   0  0  0  0  0  0  0  0  0  0  0  0
    1.0711    1.1453    0.0000 C   0  0  0  0  0  0  0  0  0  0  0  0
    1.7793    0.7275    0.0000 C   0  0  2  0  0  0  0  0  0  0  0  0
    3.2345   -0.1115    0.0000 C   0  0  0  0  0  0  0  0  0  0  0  0
    0.3381   -1.7369    0.0000 C   0  0  0  0  0  0  0  0  0  0  0  0
   -1.0853   -1.7333    0.0000 C   0  0  0  0  0  0  0  0  0  0  0  0
   -1.8040   -0.4976    0.0000 C   0  0  0  0  0  0  0  0  0  0  0  0
    2.4946    1.1311    0.0000 C   0  0  1  0  0  0  0  0  0  0  0  0
    3.2027    0.7099    0.0000 C   0  0  0  0  0  0  0  0  0  0  0  0
   -1.8040   -1.3226    0.0000 C   0  0  0  0  0  0  0  0  0  0  0  0
   -2.5158   -0.0832    0.0000 C   0  0  0  0  0  0  0  0  0  0  0  0
    3.1744    1.5879    0.0000 C   0  0  0  0  0  0  0  0  0  0  0  0
    2.5052    2.1722    0.0000 O   0  0  0  0  0  0  0  0  0  0  0  0
   -2.5158   -1.7333    0.0000 O   0  0  0  0  0  0  0  0  0  0  0  0
   -3.2345   -0.4976    0.0000 O   0  0  0  0  0  0  0  0  0  0  0  0
    1.7793    1.5772    0.0000 C   0  0  0  0  0  0  0  0  0  0  0  0
    1.0569    0.3449    0.0000 H   0  0  0  0  0  0  0  0  0  0  0  0
   -0.3735    0.3519    0.0000 C   0  0  0  0  0  0  0  0  0  0  0  0
   -0.3770   -2.1722    0.0000 H   0  0  0  0  0  0  0  0  0  0  0  0
    0.3452   -0.9364    0.0000 H   0  0  0  0  0  0  0  0  0  0  0  0
    1.7686   -0.9435    0.0000 H   0  0  0  0  0  0  0  0  0  0  0  0
    3.3501    2.6486    0.0000 H   0  0  0  0  0  0  0  0  0  0  0  0
   -4.0457   -0.0286    0.0000 H   0  0  0  0  0  0  0  0  0  0  0  0
  1  2  1  1  0  0  0
  1  4  1  0  0  0  0
  1 27  1  0  0  0  0
  2  5  1  6  0  0  0
  2  6  1  0  0  0  0
  2 24  1  0  0  0  0
  3  1  1  6  0  0  0
  3  8  1  0  0  0  0
  3 25  1  0  0  0  0
  4  9  1  0  0  0  0
  5 10  1  6  0  0  0
  5 11  1  0  0  0  0
  5 28  1  0  0  0  0
  6 12  1  0  0  0  0
  7  3  1  6  0  0  0
  7 13  1  0  0  0  0
  7 12  1  0  0  0  0
  7 26  1  0  0  0  0
  8 14  1  0  0  0  0
  9 10  1  0  0  0  0
 10 15  1  6  0  0  0
 10 23  1  0  0  0  0
 11 16  1  0  0  0  0
 13 17  1  0  0  0  0
 14 18  2  0  0  0  0
 14 17  1  0  0  0  0
 15 19  1  6  0  0  0
 15 20  1  0  0  0  0
 15 16  1  0  0  0  0
 17 21  2  0  0  0  0
 18 22  1  0  0  0  0
 20 29  1  0  0  0  0
 22 30  1  0  0  0  0
M  END
$$$$
N#Cc1cc(C)c(c(c1)C)O
 OpenBabel07182308452D

 11 11  0  0  0  0  0  0  0  0999 V2000
    2.0516   -0.7771    0.0000 C   0  0  0  0  0  0  0  0  0  0  0  0
    2.0516    0.0479    0.0000 O   0  0  0  0  0  0  0  0  0  0  0  0
    2.7660   -1.1896    0.0000 C   0  0  0  0  0  0  0  0  0  0  0  0
    3.4805   -0.7771    0.0000 C   0  0  0  0  0  0  0  0  0  0  0  0
    2.7660   -2.0146    0.0000 C   0  0  0  0  0  0  0  0  0  0  0  0
    2.0516   -2.4271    0.0000 C   0  0  0  0  0  0  0  0  0  0  0  0
    1.3371   -2.0146    0.0000 C   0  0  0  0  0  0  0  0  0  0  0  0
    1.3371   -1.1896    0.0000 C   0  0  0  0  0  0  0  0  0  0  0  0
    0.6226   -0.7771    0.0000 C   0  0  0  0  0  0  0  0  0  0  0  0
    2.0516   -3.2521    0.0000 C   0  0  0  0  0  0  0  0  0  0  0  0
    2.0516   -4.0771    0.0000 N   0  0  0  0  0  0  0  0  0  0  0  0
  1  2  1  0  0  0  0
  1  3  1  0  0  0  0
  1  8  2  0  0  0  0
  3  4  1  0  0  0  0
  3  5  2  0  0  0  0
  5  6  1  0  0  0  0
  6  7  2  0  0  0  0
  6 10  1  0  0  0  0
  7  8  1  0  0  0  0
  8  9  1  0  0  0  0
 10 11  3  0  0  0  0
M  END
$$$$
Nc1ncc(c(n1)N)Br
 OpenBabel07182308452D

 12 12  0  0  0  0  0  0  0  0999 V2000
    1.3371    0.4604    0.0000 C   0  0  0  0  0  0  0  0  0  0  0  0
    0.6226    0.0479    0.0000 N   0  0  0  0  0  0  0  0  0  0  0  0
   -0.0918    0.4604    0.0000 C   0  0  0  0  0  0  0  0  0  0  0  0
   -0.8063    0.0479    0.0000 N   0  0  0  0  0  0  0  0  0  0  0  0
   -0.0918    1.2854    0.0000 N   0  0  0  0  0  0  0  0  0  0  0  0
    0.6226    1.6979    0.0000 C   0  0  0  0  0  0  0  0  0  0  0  0
    0.6226    2.5229    0.0000 N   0  0  0  0  0  0  0  0  0  0  0  0
    1.3371    1.2854    0.0000 C   0  0  0  0  0  0  0  0  0  0  0  0
    2.0516    1.6979    0.0000 Br  0  0  0  0  0  0  0  0  0  0  0  0
   -0.8063   -0.9366    0.0000 H   0  0  0  0  0  0  0  0  0  0  0  0
    1.4752    3.0152    0.0000 H   0  0  0  0  0  0  0  0  0  0  0  0
   -0.2300    3.0151    0.0000 H   0  0  0  0  0  0  0  0  0  0  0  0
  1  2  1  0  0  0  0
  1  8  2  0  0  0  0
  2  3  2  0  0  0  0
  3  4  1  0  0  0  0
  3  5  1  0  0  0  0
  4 10  1  0  0  0  0
  5  6  2  0  0  0  0
  6  7  1  0  0  0  0
  6  8  1  0  0  0  0
  7 11  1  0  0  0  0
  7 12  1  0  0  0  0
  8  9  1  0  0  0  0
M  END
$$$$
Sc1nc(N)c2c(n1)[nH]cn2
 OpenBabel07182308452D

 12 13  0  0  0  0  0  0  0  0999 V2000
   -2.7329   -0.4348    0.0000 C   0  0  0  0  0  0  0  0  0  0  0  0
   -2.7329   -1.2629    0.0000 N   0  0  0  0  0  0  0  0  0  0  0  0
   -2.0289   -1.6770    0.0000 C   0  0  0  0  0  0  0  0  0  0  0  0
   -1.2836   -1.2629    0.0000 C   0  0  0  0  0  0  0  0  0  0  0  0
   -1.2836   -0.4348    0.0000 C   0  0  0  0  0  0  0  0  0  0  0  0
   -2.0289   -0.0207    0.0000 N   0  0  0  0  0  0  0  0  0  0  0  0
   -0.4969   -1.5114    0.0000 N   0  0  0  0  0  0  0  0  0  0  0  0
   -0.0414   -0.8488    0.0000 C   0  0  0  0  0  0  0  0  0  0  0  0
   -0.4969   -0.1863    0.0000 N   0  0  0  0  0  0  0  0  0  0  0  0
   -3.4368   -0.0207    0.0000 S   0  0  0  0  0  0  0  0  0  0  0  0
   -2.0289   -2.5052    0.0000 N   0  0  0  0  0  0  0  0  0  0  0  0
   -1.1743   -2.9940    0.0000 H   0  0  0  0  0  0  0  0  0  0  0  0
  1  2  2  0  0  0  0
  1  6  1  0  0  0  0
  1 10  1  0  0  0  0
  2  3  1  0  0  0  0
  3  4  2  0  0  0  0
  3 11  1  0  0  0  0
  4  5  1  0  0  0  0
  4  7  1  0  0  0  0
  5  6  2  0  0  0  0
  5  9  1  0  0  0  0
  7  8  2  0  0  0  0
  8  9  1  0  0  0  0
 11 12  1  0  0  0  0
M  END
$$$$
OP=O
 OpenBabel07182308452D

  4  3  0  0  0  0  0  0  0  0999 V2000
    4.0993    2.0911    0.0000 P   0  0  0  0  0  0  0  0  0  0  0  0
    4.0993    2.9192    0.0000 O   0  0  0  0  0  0  0  0  0  0  0  0
    4.0993    1.2629    0.0000 O   0  0  0  0  0  0  0  0  0  0  0  0
    4.9393    3.4042    0.0000 H   0  0  0  0  0  0  0  0  0  0  0  0
  1  2  1  0  0  0  0
  1  3  2  0  0  0  0
  2  4  1  0  0  0  0
M  END
$$$$
Brc1cnc2c(c1)CCc1c(C2)c(Br)cc(c1)Cl
 OpenBabel07182308452D

 18 20  0  0  1  0  0  0  0  0999 V2000
    3.6447    2.0263    0.0000 Br  0  0  0  0  0  0  0  0  0  0  0  0
    7.9819    4.1595    0.0000 Br  0  0  0  0  0  0  0  0  0  0  0  0
    1.6500    4.1595    0.0000 Cl  0  0  0  0  0  0  0  0  0  0  0  0
    6.1801    2.8285    0.0000 N   0  0  0  0  0  0  0  0  0  0  0  0
    4.8159    3.0647    0.0000 C   0  0  0  0  0  0  0  0  0  0  0  0
    4.0727    3.4227    0.0000 C   0  0  0  0  0  0  0  0  0  0  0  0
    5.5593    3.4227    0.0000 C   0  0  0  0  0  0  0  0  0  0  0  0
    3.8890    4.2270    0.0000 C   0  0  0  0  0  0  0  0  0  0  0  0
    5.7428    4.2270    0.0000 C   0  0  0  0  0  0  0  0  0  0  0  0
    4.4034    4.8720    0.0000 C   0  0  0  0  0  0  0  0  0  0  0  0
    5.2285    4.8720    0.0000 C   0  0  0  0  0  0  0  0  0  0  0  0
    3.4518    2.8285    0.0000 C   0  0  0  0  0  0  0  0  0  0  0  0
    3.0719    4.4929    0.0000 C   0  0  0  0  0  0  0  0  0  0  0  0
    6.5600    4.4929    0.0000 C   0  0  0  0  0  0  0  0  0  0  0  0
    2.6287    3.0755    0.0000 C   0  0  0  0  0  0  0  0  0  0  0  0
    2.4374    3.9133    0.0000 C   0  0  0  0  0  0  0  0  0  0  0  0
    7.0032    3.0754    0.0000 C   0  0  0  0  0  0  0  0  0  0  0  0
    7.1945    3.9132    0.0000 C   0  0  0  0  0  0  0  0  0  0  0  0
  1 12  1  0  0  0  0
  2 18  1  0  0  0  0
  3 16  1  0  0  0  0
  4  7  1  0  0  0  0
  4 17  2  0  0  0  0
  5  6  1  0  0  0  0
  5  7  1  0  0  0  0
  6  8  2  0  0  0  0
  6 12  1  0  0  0  0
  7  9  2  0  0  0  0
  8 10  1  0  0  0  0
  8 13  1  0  0  0  0
  9 11  1  0  0  0  0
  9 14  1  0  0  0  0
 10 11  1  0  0  0  0
 12 15  2  0  0  0  0
 13 16  2  0  0  0  0
 14 18  2  0  0  0  0
 15 16  1  0  0  0  0
 17 18  1  0  0  0  0
M  END
$$$$
Clc1ccc2c(c1N)CCO2
 OpenBabel07182308452D

 13 14  0  0  0  0  0  0  0  0999 V2000
    0.0741   -2.2620    0.0000 C   0  0  0  0  0  0  0  0  0  0  0  0
    0.7883   -2.6799    0.0000 C   0  0  0  0  0  0  0  0  0  0  0  0
    1.5763   -2.4240    0.0000 O   0  0  0  0  0  0  0  0  0  0  0  0
    2.0634   -3.0942    0.0000 C   0  0  0  0  0  0  0  0  0  0  0  0
    1.5763   -3.7646    0.0000 C   0  0  0  0  0  0  0  0  0  0  0  0
    0.7883   -3.5085    0.0000 C   0  0  0  0  0  0  0  0  0  0  0  0
    0.0741   -3.9170    0.0000 C   0  0  0  0  0  0  0  0  0  0  0  0
    0.0741   -4.7398    0.0000 N   0  0  0  0  0  0  0  0  0  0  0  0
   -0.6399   -3.5075    0.0000 C   0  0  0  0  0  0  0  0  0  0  0  0
   -1.3519   -3.9199    0.0000 Cl  0  0  0  0  0  0  0  0  0  0  0  0
   -0.6399   -2.6799    0.0000 C   0  0  0  0  0  0  0  0  0  0  0  0
   -0.7785   -5.2321    0.0000 H   0  0  0  0  0  0  0  0  0  0  0  0
    0.9267   -5.2320    0.0000 H   0  0  0  0  0  0  0  0  0  0  0  0
  1  2  2  0  0  0  0
  1 11  1  0  0  0  0
  2  3  1  0  0  0  0
  2  6  1  0  0  0  0
  3  4  1  0  0  0  0
  4  5  1  0  0  0  0
  5  6  1  0  0  0  0
  6  7  2  0  0  0  0
  7  8  1  0  0  0  0
  7  9  1  0  0  0  0
  8 12  1  0  0  0  0
  8 13  1  0  0  0  0
  9 10  1  0  0  0  0
  9 11  2  0  0  0  0
M  END
$$$$
Nc1ncccn1
 OpenBabel07182308452D

  8  8  0  0  0  0  0  0  0  0999 V2000
    6.6903  -20.5494    0.0000 N   0  0  0  0  0  0  0  0  0  0  0  0
    6.6903  -21.3744    0.0000 C   0  0  0  0  0  0  0  0  0  0  0  0
    5.9759  -21.7869    0.0000 N   0  0  0  0  0  0  0  0  0  0  0  0
    7.4048  -20.1370    0.0000 C   0  0  0  0  0  0  0  0  0  0  0  0
    8.1193  -20.5495    0.0000 C   0  0  0  0  0  0  0  0  0  0  0  0
    8.1192  -21.3744    0.0000 C   0  0  0  0  0  0  0  0  0  0  0  0
    7.4048  -21.7869    0.0000 N   0  0  0  0  0  0  0  0  0  0  0  0
    5.9759  -22.7714    0.0000 H   0  0  0  0  0  0  0  0  0  0  0  0
  1  2  1  0  0  0  0
  1  4  2  0  0  0  0
  2  3  1  0  0  0  0
  2  7  2  0  0  0  0
  3  8  1  0  0  0  0
  4  5  1  0  0  0  0
  5  6  2  0  0  0  0
  6  7  1  0  0  0  0
M  END
$$$$
Cn1nc2c(c1C)cccc2
 OpenBabel07182308452D

 11 12  0  0  0  0  0  0  0  0999 V2000
    8.8363  -22.6030    0.0000 C   0  0  0  0  0  0  0  0  0  0  0  0
    8.1166  -23.0188    0.0000 C   0  0  0  0  0  0  0  0  0  0  0  0
    8.1168  -23.8438    0.0000 C   0  0  0  0  0  0  0  0  0  0  0  0
    8.8313  -24.2561    0.0000 C   0  0  0  0  0  0  0  0  0  0  0  0
    9.5510  -23.8403    0.0000 C   0  0  0  0  0  0  0  0  0  0  0  0
    9.5508  -23.0153    0.0000 C   0  0  0  0  0  0  0  0  0  0  0  0
    9.0043  -25.0691    0.0000 C   0  0  0  0  0  0  0  0  0  0  0  0
    9.8310  -25.1557    0.0000 N   0  0  0  0  0  0  0  0  0  0  0  0
   10.1688  -24.3964    0.0000 N   0  0  0  0  0  0  0  0  0  0  0  0
   10.2425  -25.8681    0.0000 C   0  0  0  0  0  0  0  0  0  0  0  0
    8.4600  -25.6738    0.0000 C   0  0  0  0  0  0  0  0  0  0  0  0
  1  2  1  0  0  0  0
  1  6  2  0  0  0  0
  2  3  2  0  0  0  0
  3  4  1  0  0  0  0
  4  5  1  0  0  0  0
  4  7  2  0  0  0  0
  5  6  1  0  0  0  0
  5  9  2  0  0  0  0
  7  8  1  0  0  0  0
  7 11  1  0  0  0  0
  8  9  1  0  0  0  0
  8 10  1  0  0  0  0
M  END
$$$$
N[C@H]1[C@H]2SCC(=CN2C1=O)S
 OpenBabel07182308452D

 13 14  0  0  0  0  0  0  0  0999 V2000
    0.8772   -0.3633    0.0000 C   0  0  2  0  0  0  0  0  0  0  0  0
    0.8772   -1.1884    0.0000 N   0  0  0  0  0  0  0  0  0  0  0  0
    1.5787   -1.6011    0.0000 C   0  0  0  0  0  0  0  0  0  0  0  0
    2.2800   -1.1884    0.0000 C   0  0  0  0  0  0  0  0  0  0  0  0
    2.2800   -0.3633    0.0000 C   0  0  0  0  0  0  0  0  0  0  0  0
    1.5787    0.0492    0.0000 S   0  0  0  0  0  0  0  0  0  0  0  0
    0.0519   -0.3633    0.0000 C   0  0  1  0  0  0  0  0  0  0  0  0
    0.0519   -1.1884    0.0000 C   0  0  0  0  0  0  0  0  0  0  0  0
   -0.6906    0.0492    0.0000 N   0  0  0  0  0  0  0  0  0  0  0  0
   -0.6906   -1.6011    0.0000 O   0  0  0  0  0  0  0  0  0  0  0  0
    3.0227   -1.6011    0.0000 S   0  0  0  0  0  0  0  0  0  0  0  0
    0.8772    0.4619    0.0000 H   0  0  0  0  0  0  0  0  0  0  0  0
   -0.7026    1.0336    0.0000 H   0  0  0  0  0  0  0  0  0  0  0  0
  1  2  1  0  0  0  0
  1  6  1  0  0  0  0
  1 12  1  6  0  0  0
  2  3  1  0  0  0  0
  2  8  1  0  0  0  0
  3  4  2  0  0  0  0
  4  5  1  0  0  0  0
  4 11  1  0  0  0  0
  5  6  1  0  0  0  0
  7  1  1  1  0  0  0
  7  8  1  0  0  0  0
  7  9  1  0  0  0  0
  8 10  2  0  0  0  0
  9 13  1  0  0  0  0
M  END
$$$$
O=C1NCc2c1c1c3ccccc3n3c1c1c2c2ccccc2n1[C@]1(O[C@@H]3CCC1)C
 OpenBabel07182308452D

 32 39  0  0  0  0  0  0  0  0999 V2000
   -0.4124    2.5573    0.0000 C   0  0  0  0  0  0  0  0  0  0  0  0
    0.4125    2.5573    0.0000 C   0  0  0  0  0  0  0  0  0  0  0  0
    0.4125    1.1283    0.0000 C   0  0  0  0  0  0  0  0  0  0  0  0
    0.8250    1.8427    0.0000 C   0  0  0  0  0  0  0  0  0  0  0  0
   -0.4124    1.1283    0.0000 C   0  0  0  0  0  0  0  0  0  0  0  0
   -0.8249    1.8427    0.0000 C   0  0  0  0  0  0  0  0  0  0  0  0
    1.7182    0.8507    0.0000 C   0  0  0  0  0  0  0  0  0  0  0  0
    1.6319    1.6712    0.0000 C   0  0  0  0  0  0  0  0  0  0  0  0
    3.0530    1.8207    0.0000 C   0  0  0  0  0  0  0  0  0  0  0  0
    2.2994    2.1562    0.0000 C   0  0  0  0  0  0  0  0  0  0  0  0
    2.4718    0.5153    0.0000 C   0  0  0  0  0  0  0  0  0  0  0  0
    3.1393    1.0002    0.0000 C   0  0  0  0  0  0  0  0  0  0  0  0
   -1.7181    0.8507    0.0000 C   0  0  0  0  0  0  0  0  0  0  0  0
   -1.6319    1.6712    0.0000 C   0  0  0  0  0  0  0  0  0  0  0  0
   -2.2994    2.1562    0.0000 C   0  0  0  0  0  0  0  0  0  0  0  0
   -3.0530    1.8207    0.0000 C   0  0  0  0  0  0  0  0  0  0  0  0
   -3.1393    1.0002    0.0000 C   0  0  0  0  0  0  0  0  0  0  0  0
   -2.4719    0.5153    0.0000 C   0  0  0  0  0  0  0  0  0  0  0  0
   -0.9644    0.5153    0.0000 N   0  0  0  0  0  0  0  0  0  0  0  0
    0.9644    0.5153    0.0000 N   0  0  0  0  0  0  0  0  0  0  0  0
    0.0237   -0.1141    0.0000 O   0  0  0  0  0  0  0  0  0  0  0  0
    0.0237   -1.7642    0.0000 C   0  0  0  0  0  0  0  0  0  0  0  0
    0.7381   -1.3517    0.0000 C   0  0  0  0  0  0  0  0  0  0  0  0
    0.7381   -0.5267    0.0000 C   0  0  2  0  0  0  0  0  0  0  0  0
    0.0000    3.8268    0.0000 N   0  0  0  0  0  0  0  0  0  0  0  0
   -0.6674    3.3419    0.0000 C   0  0  0  0  0  0  0  0  0  0  0  0
    0.6674    3.3419    0.0000 C   0  0  0  0  0  0  0  0  0  0  0  0
    1.4643    3.5554    0.0000 O   0  0  0  0  0  0  0  0  0  0  0  0
   -0.6906   -0.5267    0.0000 C   0  0  2  0  0  0  0  0  0  0  0  0
   -1.5156   -0.5267    0.0000 C   0  0  0  0  0  0  0  0  0  0  0  0
   -0.6906   -1.3517    0.0000 C   0  0  0  0  0  0  0  0  0  0  0  0
    0.0000    4.8113    0.0000 H   0  0  0  0  0  0  0  0  0  0  0  0
  1  6  1  0  0  0  0
  1  2  2  0  0  0  0
  2  4  1  0  0  0  0
  2 27  1  0  0  0  0
  3 20  1  0  0  0  0
  4  3  2  0  0  0  0
  4  8  1  0  0  0  0
  5  3  1  0  0  0  0
  6  5  2  0  0  0  0
  6 14  1  0  0  0  0
  7 11  1  0  0  0  0
  8  7  2  0  0  0  0
  9 10  2  0  0  0  0
  9 12  1  0  0  0  0
 10  8  1  0  0  0  0
 11 12  2  0  0  0  0
 13 19  1  0  0  0  0
 13 14  2  0  0  0  0
 15 14  1  0  0  0  0
 15 16  2  0  0  0  0
 16 17  1  0  0  0  0
 17 18  2  0  0  0  0
 18 13  1  0  0  0  0
 19  5  1  0  0  0  0
 20  7  1  0  0  0  0
 21 29  1  0  0  0  0
 21 24  1  0  0  0  0
 22 23  1  0  0  0  0
 24 23  1  1  0  0  0
 24 20  1  0  0  0  0
 25 26  1  0  0  0  0
 25 27  1  0  0  0  0
 25 32  1  0  0  0  0
 26  1  1  0  0  0  0
 27 28  2  0  0  0  0
 29 31  1  0  0  0  0
 29 19  1  0  0  0  0
 29 30  1  6  0  0  0
 31 22  1  0  0  0  0
M  END
$$$$
Cc1cc2c([nH]1)cccc2
 OpenBabel07182308452D

 11 12  0  0  0  0  0  0  0  0999 V2000
   -3.0323   -0.5981    0.0000 C   0  0  0  0  0  0  0  0  0  0  0  0
   -3.0323   -1.4233    0.0000 C   0  0  0  0  0  0  0  0  0  0  0  0
   -3.8164   -1.6709    0.0000 N   0  0  0  0  0  0  0  0  0  0  0  0
   -4.3115   -1.0108    0.0000 C   0  0  0  0  0  0  0  0  0  0  0  0
   -3.8164   -0.3505    0.0000 C   0  0  0  0  0  0  0  0  0  0  0  0
   -5.1367   -0.9283    0.0000 C   0  0  0  0  0  0  0  0  0  0  0  0
   -5.4667   -0.1443    0.0000 C   0  0  0  0  0  0  0  0  0  0  0  0
   -4.9717    0.5157    0.0000 C   0  0  0  0  0  0  0  0  0  0  0  0
   -4.1465    0.4331    0.0000 C   0  0  0  0  0  0  0  0  0  0  0  0
   -2.3722   -1.9185    0.0000 C   0  0  0  0  0  0  0  0  0  0  0  0
   -4.1174   -2.6083    0.0000 H   0  0  0  0  0  0  0  0  0  0  0  0
  1  2  2  0  0  0  0
  1  5  1  0  0  0  0
  2  3  1  0  0  0  0
  2 10  1  0  0  0  0
  3  4  1  0  0  0  0
  3 11  1  0  0  0  0
  4  5  1  0  0  0  0
  4  6  2  0  0  0  0
  5  9  2  0  0  0  0
  6  7  1  0  0  0  0
  7  8  2  0  0  0  0
  8  9  1  0  0  0  0
M  END
$$$$
O=C1CCCCN1
 OpenBabel07182308452D

  7  7  0  0  0  0  0  0  0  0999 V2000
    3.7935    2.3669    0.0000 O   0  0  0  0  0  0  0  0  0  0  0  0
    3.0791    1.1294    0.0000 N   0  0  0  0  0  0  0  0  0  0  0  0
    2.3645    0.7169    0.0000 C   0  0  0  0  0  0  0  0  0  0  0  0
    1.6500    1.1294    0.0000 C   0  0  0  0  0  0  0  0  0  0  0  0
    1.6500    1.9544    0.0000 C   0  0  0  0  0  0  0  0  0  0  0  0
    2.3645    2.3669    0.0000 C   0  0  0  0  0  0  0  0  0  0  0  0
    3.0791    1.9544    0.0000 C   0  0  0  0  0  0  0  0  0  0  0  0
  1  7  2  0  0  0  0
  2  3  1  0  0  0  0
  2  7  1  0  0  0  0
  3  4  1  0  0  0  0
  4  5  1  0  0  0  0
  5  6  1  0  0  0  0
  6  7  1  0  0  0  0
M  END
$$$$
O=C1NCCc2c1[nH]nc2
 OpenBabel07182308452D

 10 11  0  0  0  0  0  0  0  0999 V2000
    6.6515    0.7169    0.0000 O   0  0  0  0  0  0  0  0  0  0  0  0
    5.9370   -0.5207    0.0000 N   0  0  0  0  0  0  0  0  0  0  0  0
    8.1466   -0.2693    0.0000 N   0  0  0  0  0  0  0  0  0  0  0  0
    8.6280   -0.9332    0.0000 N   0  0  0  0  0  0  0  0  0  0  0  0
    6.6515   -1.7582    0.0000 C   0  0  0  0  0  0  0  0  0  0  0  0
    5.9370   -1.3457    0.0000 C   0  0  0  0  0  0  0  0  0  0  0  0
    7.3659   -1.3457    0.0000 C   0  0  0  0  0  0  0  0  0  0  0  0
    7.3659   -0.5207    0.0000 C   0  0  0  0  0  0  0  0  0  0  0  0
    6.6515   -0.1082    0.0000 C   0  0  0  0  0  0  0  0  0  0  0  0
    8.1466   -1.5972    0.0000 C   0  0  0  0  0  0  0  0  0  0  0  0
  1  9  2  0  0  0  0
  2  6  1  0  0  0  0
  2  9  1  0  0  0  0
  3  4  1  0  0  0  0
  3  8  1  0  0  0  0
  4 10  2  0  0  0  0
  5  6  1  0  0  0  0
  5  7  1  0  0  0  0
  7  8  2  0  0  0  0
  7 10  1  0  0  0  0
  8  9  1  0  0  0  0
M  END
$$$$
Nc1ccc(c2c1nccc2C)O
 OpenBabel07182308452D

 14 15  0  0  0  0  0  0  0  0999 V2000
   -0.0000   -3.3000    0.0000 C   0  0  0  0  0  0  0  0  0  0  0  0
    0.7145   -2.8875    0.0000 C   0  0  0  0  0  0  0  0  0  0  0  0
    1.4289   -3.3000    0.0000 C   0  0  0  0  0  0  0  0  0  0  0  0
    2.1434   -2.8875    0.0000 C   0  0  0  0  0  0  0  0  0  0  0  0
    2.1434   -2.0625    0.0000 N   0  0  0  0  0  0  0  0  0  0  0  0
    1.4289   -1.6500    0.0000 C   0  0  0  0  0  0  0  0  0  0  0  0
    0.7145   -2.0625    0.0000 C   0  0  0  0  0  0  0  0  0  0  0  0
    0.0000   -1.6500    0.0000 C   0  0  0  0  0  0  0  0  0  0  0  0
    0.0000   -0.8250    0.0000 C   0  0  0  0  0  0  0  0  0  0  0  0
    0.7145   -0.4125    0.0000 C   0  0  0  0  0  0  0  0  0  0  0  0
    1.4289   -0.8250    0.0000 C   0  0  0  0  0  0  0  0  0  0  0  0
    2.1434   -0.4125    0.0000 N   0  0  0  0  0  0  0  0  0  0  0  0
   -0.7145   -2.0625    0.0000 O   0  0  0  0  0  0  0  0  0  0  0  0
    2.1434    0.5720    0.0000 H   0  0  0  0  0  0  0  0  0  0  0  0
  1  2  1  0  0  0  0
  2  3  1  0  0  0  0
  2  7  2  0  0  0  0
  3  4  2  0  0  0  0
  4  5  1  0  0  0  0
  5  6  2  0  0  0  0
  6  7  1  0  0  0  0
  6 11  1  0  0  0  0
  7  8  1  0  0  0  0
  8  9  2  0  0  0  0
  8 13  1  0  0  0  0
  9 10  1  0  0  0  0
 10 11  2  0  0  0  0
 11 12  1  0  0  0  0
 12 14  1  0  0  0  0
M  END
$$$$
O[C@@H]1CCC[C@@H]1C
 OpenBabel07182308452D

  9  9  0  0  0  0  0  0  0  0999 V2000
   -1.3974    0.2019    0.0000 C   0  0  0  0  0  0  0  0  0  0  0  0
   -0.7300    0.6869    0.0000 C   0  0  2  0  0  0  0  0  0  0  0  0
   -0.0625    0.2020    0.0000 C   0  0  2  0  0  0  0  0  0  0  0  0
   -0.3175   -0.5826    0.0000 C   0  0  0  0  0  0  0  0  0  0  0  0
   -1.1425   -0.5826    0.0000 C   0  0  0  0  0  0  0  0  0  0  0  0
   -0.7300    1.5120    0.0000 O   0  0  0  0  0  0  0  0  0  0  0  0
    0.5505   -0.3499    0.0000 H   0  0  0  0  0  0  0  0  0  0  0  0
    0.6518    0.6145    0.0000 C   0  0  0  0  0  0  0  0  0  0  0  0
    0.1100    1.9970    0.0000 H   0  0  0  0  0  0  0  0  0  0  0  0
  1  2  1  0  0  0  0
  1  5  1  0  0  0  0
  2  3  1  1  0  0  0
  2  6  1  0  0  0  0
  3  4  1  0  0  0  0
  3  7  1  6  0  0  0
  3  8  1  0  0  0  0
  4  5  1  0  0  0  0
  6  9  1  0  0  0  0
M  END
$$$$
N#Cc1cnc2c(c1N)ccc(c2)O
 OpenBabel07182308452D

 15 16  0  0  0  0  0  0  0  0999 V2000
    5.8656  -12.7691    0.0000 C   0  0  0  0  0  0  0  0  0  0  0  0
    5.8656  -13.5941    0.0000 C   0  0  0  0  0  0  0  0  0  0  0  0
    6.5801  -14.0066    0.0000 C   0  0  0  0  0  0  0  0  0  0  0  0
    7.2945  -13.5941    0.0000 C   0  0  0  0  0  0  0  0  0  0  0  0
    7.2945  -12.7691    0.0000 C   0  0  0  0  0  0  0  0  0  0  0  0
    6.5801  -12.3567    0.0000 N   0  0  0  0  0  0  0  0  0  0  0  0
    8.0090  -14.0066    0.0000 C   0  0  0  0  0  0  0  0  0  0  0  0
    8.7235  -13.5941    0.0000 C   0  0  0  0  0  0  0  0  0  0  0  0
    8.7235  -12.7691    0.0000 C   0  0  0  0  0  0  0  0  0  0  0  0
    8.0090  -12.3567    0.0000 C   0  0  0  0  0  0  0  0  0  0  0  0
    6.5801  -14.8317    0.0000 N   0  0  0  0  0  0  0  0  0  0  0  0
    9.4395  -12.3568    0.0000 O   0  0  0  0  0  0  0  0  0  0  0  0
    5.1289  -14.0193    0.0000 C   0  0  0  0  0  0  0  0  0  0  0  0
    4.4102  -14.4342    0.0000 N   0  0  0  0  0  0  0  0  0  0  0  0
    5.7275  -15.3239    0.0000 H   0  0  0  0  0  0  0  0  0  0  0  0
  1  2  1  0  0  0  0
  1  6  2  0  0  0  0
  2  3  2  0  0  0  0
  2 13  1  0  0  0  0
  3  4  1  0  0  0  0
  3 11  1  0  0  0  0
  4  5  1  0  0  0  0
  4  7  2  0  0  0  0
  5  6  1  0  0  0  0
  5 10  2  0  0  0  0
  7  8  1  0  0  0  0
  8  9  2  0  0  0  0
  9 10  1  0  0  0  0
  9 12  1  0  0  0  0
 11 15  1  0  0  0  0
 13 14  3  0  0  0  0
M  END
$$$$
Sc1ccc2c(c1)[nH]nc2
 OpenBabel07182308452D

 11 12  0  0  0  0  0  0  0  0999 V2000
   -0.8796   -0.9627    0.0000 C   0  0  0  0  0  0  0  0  0  0  0  0
   -0.8796   -0.1376    0.0000 C   0  0  0  0  0  0  0  0  0  0  0  0
   -0.1651    0.2748    0.0000 C   0  0  0  0  0  0  0  0  0  0  0  0
    0.5493   -0.1376    0.0000 C   0  0  0  0  0  0  0  0  0  0  0  0
    0.5493   -0.9627    0.0000 C   0  0  0  0  0  0  0  0  0  0  0  0
   -0.1651   -1.3752    0.0000 C   0  0  0  0  0  0  0  0  0  0  0  0
    1.3340    0.1172    0.0000 C   0  0  0  0  0  0  0  0  0  0  0  0
    1.8190   -0.5501    0.0000 N   0  0  0  0  0  0  0  0  0  0  0  0
    1.3340   -1.2177    0.0000 N   0  0  0  0  0  0  0  0  0  0  0  0
   -1.5940   -1.3752    0.0000 S   0  0  0  0  0  0  0  0  0  0  0  0
    1.6382   -2.1540    0.0000 H   0  0  0  0  0  0  0  0  0  0  0  0
  1  2  2  0  0  0  0
  1  6  1  0  0  0  0
  1 10  1  0  0  0  0
  2  3  1  0  0  0  0
  3  4  2  0  0  0  0
  4  5  1  0  0  0  0
  4  7  1  0  0  0  0
  5  6  2  0  0  0  0
  5  9  1  0  0  0  0
  7  8  2  0  0  0  0
  8  9  1  0  0  0  0
  9 11  1  0  0  0  0
M  END
$$$$
Fc1ccc(cc1)F
 OpenBabel07182308452D

  8  8  0  0  0  0  0  0  0  0999 V2000
   -1.9254   -5.2301    0.0000 C   0  0  0  0  0  0  0  0  0  0  0  0
   -1.2580   -4.7451    0.0000 C   0  0  0  0  0  0  0  0  0  0  0  0
   -2.7653   -4.0740    0.0000 C   0  0  0  0  0  0  0  0  0  0  0  0
   -2.6791   -4.8945    0.0000 C   0  0  0  0  0  0  0  0  0  0  0  0
   -2.0979   -3.5891    0.0000 C   0  0  0  0  0  0  0  0  0  0  0  0
   -1.3442   -3.9247    0.0000 C   0  0  0  0  0  0  0  0  0  0  0  0
   -3.3465   -5.3794    0.0000 F   0  0  0  0  0  0  0  0  0  0  0  0
   -0.6768   -3.4397    0.0000 F   0  0  0  0  0  0  0  0  0  0  0  0
  2  1  2  0  0  0  0
  4  1  1  0  0  0  0
  4  3  2  0  0  0  0
  5  3  1  0  0  0  0
  6  2  1  0  0  0  0
  6  5  2  0  0  0  0
  7  4  1  0  0  0  0
  8  6  1  0  0  0  0
M  END
$$$$
C1=NNC=[NH+]1
 OpenBabel07182308452D

  5  5  0  0  0  0  0  0  0  0999 V2000
   -0.8183   -0.3833    0.0000 C   0  0  0  0  0  0  0  0  0  0  0  0
   -0.8183   -1.7182    0.0000 C   0  0  0  0  0  0  0  0  0  0  0  0
   -1.6029   -0.6382    0.0000 N   0  0  0  0  0  0  0  0  0  0  0  0
   -0.3334   -1.0507    0.0000 N   0  3  0  0  0  0  0  0  0  0  0  0
   -1.6029   -1.4632    0.0000 N   0  0  0  0  0  0  0  0  0  0  0  0
  3  1  2  0  0  0  0
  4  1  1  0  0  0  0
  4  2  2  0  0  0  0
  5  2  1  0  0  0  0
  5  3  1  0  0  0  0
M  CHG  1   4   1
M  END
$$$$
O=C1CNC(=O)[C@@H]2C[C@H](CN2C(=O)[C@H](C)NC(=O)[C@@H](NC(=O)[C@@H](NC(=O)[C@H](N1)C)C)C)O
 OpenBabel07182308452D

 37 38  0  0  1  0  0  0  0  0999 V2000
   15.4754   -6.2574    0.0000 C   0  0  2  0  0  0  0  0  0  0  0  0
   16.1865   -5.8391    0.0000 C   0  0  0  0  0  0  0  0  0  0  0  0
   14.7643   -5.8391    0.0000 N   0  0  0  0  0  0  0  0  0  0  0  0
   15.4754   -7.0939    0.0000 C   0  0  0  0  0  0  0  0  0  0  0  0
   16.1865   -7.5122    0.0000 N   0  0  0  0  0  0  0  0  0  0  0  0
   14.7643   -7.5122    0.0000 O   0  0  0  0  0  0  0  0  0  0  0  0
   14.0533   -6.2574    0.0000 C   0  0  0  0  0  0  0  0  0  0  0  0
   13.3422   -5.8391    0.0000 C   0  0  2  0  0  0  0  0  0  0  0  0
   14.0533   -7.0939    0.0000 O   0  0  0  0  0  0  0  0  0  0  0  0
   12.6311   -6.2574    0.0000 N   0  0  0  0  0  0  0  0  0  0  0  0
   13.3422   -5.0025    0.0000 C   0  0  0  0  0  0  0  0  0  0  0  0
   16.1865   -8.3488    0.0000 C   0  0  1  0  0  0  0  0  0  0  0  0
   16.8976   -8.7670    0.0000 C   0  0  0  0  0  0  0  0  0  0  0  0
   15.4754   -8.7670    0.0000 C   0  0  0  0  0  0  0  0  0  0  0  0
   14.7643   -8.3488    0.0000 O   0  0  0  0  0  0  0  0  0  0  0  0
   15.4754   -9.6036    0.0000 N   0  0  0  0  0  0  0  0  0  0  0  0
   14.7643  -10.0219    0.0000 C   0  0  2  0  0  0  0  0  0  0  0  0
   14.0533   -9.6036    0.0000 C   0  0  0  0  0  0  0  0  0  0  0  0
   14.7643  -10.8585    0.0000 C   0  0  0  0  0  0  0  0  0  0  0  0
   13.3422  -10.0219    0.0000 N   0  0  0  0  0  0  0  0  0  0  0  0
   14.0533   -8.7670    0.0000 O   0  0  0  0  0  0  0  0  0  0  0  0
   12.6311   -7.0939    0.0000 C   0  0  0  0  0  0  0  0  0  0  0  0
   13.3422   -7.5122    0.0000 O   0  0  0  0  0  0  0  0  0  0  0  0
   11.9200   -7.5122    0.0000 C   0  0  0  0  0  0  0  0  0  0  0  0
   11.9200   -8.3488    0.0000 N   0  0  0  0  0  0  0  0  0  0  0  0
   12.6311   -8.7670    0.0000 C   0  0  0  0  0  0  0  0  0  0  0  0
   13.3422   -8.3488    0.0000 O   0  0  0  0  0  0  0  0  0  0  0  0
   12.6311   -9.6036    0.0000 C   0  0  2  0  0  0  0  0  0  0  0  0
   13.2585  -10.7748    0.0000 C   0  0  0  0  0  0  0  0  0  0  0  0
   12.0396  -10.1951    0.0000 C   0  0  0  0  0  0  0  0  0  0  0  0
   12.4234  -10.9614    0.0000 C   0  0  1  0  0  0  0  0  0  0  0  0
   12.0716  -11.7018    0.0000 O   0  0  0  0  0  0  0  0  0  0  0  0
   14.7643   -4.8546    0.0000 H   0  0  0  0  0  0  0  0  0  0  0  0
   17.0411   -7.0234    0.0000 H   0  0  0  0  0  0  0  0  0  0  0  0
   11.7765   -5.7686    0.0000 H   0  0  0  0  0  0  0  0  0  0  0  0
   16.3300  -10.0924    0.0000 H   0  0  0  0  0  0  0  0  0  0  0  0
   11.0654   -8.8376    0.0000 H   0  0  0  0  0  0  0  0  0  0  0  0
  1  2  1  1  0  0  0
  1  3  1  0  0  0  0
  1  4  1  0  0  0  0
  3  7  1  0  0  0  0
  3 33  1  0  0  0  0
  4  5  1  0  0  0  0
  4  6  2  0  0  0  0
  5 12  1  0  0  0  0
  5 34  1  0  0  0  0
  7  8  1  0  0  0  0
  7  9  2  0  0  0  0
  8 10  1  0  0  0  0
  8 11  1  6  0  0  0
 10 22  1  0  0  0  0
 10 35  1  0  0  0  0
 12 13  1  1  0  0  0
 12 14  1  0  0  0  0
 14 15  2  0  0  0  0
 14 16  1  0  0  0  0
 16 17  1  0  0  0  0
 16 36  1  0  0  0  0
 17 18  1  0  0  0  0
 17 19  1  1  0  0  0
 18 20  1  0  0  0  0
 18 21  2  0  0  0  0
 20 28  1  0  0  0  0
 20 29  1  0  0  0  0
 22 23  2  0  0  0  0
 22 24  1  0  0  0  0
 24 25  1  0  0  0  0
 25 26  1  0  0  0  0
 25 37  1  0  0  0  0
 26 27  2  0  0  0  0
 26 28  1  0  0  0  0
 28 30  1  1  0  0  0
 29 31  1  0  0  0  0
 30 31  1  0  0  0  0
 31 32  1  6  0  0  0
M  END
$$$$
c1ccc2c(c1)occ2
 OpenBabel07182308452D

  9 10  0  0  0  0  0  0  0  0999 V2000
   -0.5270   -3.4685    0.0000 C   0  0  0  0  0  0  0  0  0  0  0  0
   -0.5388   -2.6320    0.0000 C   0  0  0  0  0  0  0  0  0  0  0  0
    0.1662   -2.2037    0.0000 C   0  0  0  0  0  0  0  0  0  0  0  0
    0.9250   -2.6112    0.0000 C   0  0  0  0  0  0  0  0  0  0  0  0
    0.9368   -3.4476    0.0000 C   0  0  0  0  0  0  0  0  0  0  0  0
    0.1899   -3.8767    0.0000 C   0  0  0  0  0  0  0  0  0  0  0  0
    1.7161   -2.3491    0.0000 C   0  0  0  0  0  0  0  0  0  0  0  0
    2.1856   -3.0116    0.0000 C   0  0  0  0  0  0  0  0  0  0  0  0
    1.7351   -3.6874    0.0000 O   0  0  0  0  0  0  0  0  0  0  0  0
  1  2  2  0  0  0  0
  1  6  1  0  0  0  0
  2  3  1  0  0  0  0
  3  4  2  0  0  0  0
  4  5  1  0  0  0  0
  4  7  1  0  0  0  0
  5  6  2  0  0  0  0
  5  9  1  0  0  0  0
  7  8  2  0  0  0  0
  8  9  1  0  0  0  0
M  END
$$$$
N#Cc1ccc2c(c1)cc[nH]2
 OpenBabel07182308452D

 12 13  0  0  0  0  0  0  0  0999 V2000
   -1.2965    0.2247    0.0000 C   0  0  0  0  0  0  0  0  0  0  0  0
   -0.6291   -0.2602    0.0000 C   0  0  0  0  0  0  0  0  0  0  0  0
   -1.0414    1.0093    0.0000 C   0  0  0  0  0  0  0  0  0  0  0  0
    0.0383    0.2246    0.0000 N   0  0  0  0  0  0  0  0  0  0  0  0
   -0.2164    1.0093    0.0000 C   0  0  0  0  0  0  0  0  0  0  0  0
   -1.4458    1.7286    0.0000 C   0  0  0  0  0  0  0  0  0  0  0  0
   -1.0251    2.4383    0.0000 C   0  0  0  0  0  0  0  0  0  0  0  0
   -0.2002    2.4288    0.0000 C   0  0  0  0  0  0  0  0  0  0  0  0
    0.2040    1.7097    0.0000 C   0  0  0  0  0  0  0  0  0  0  0  0
   -1.4294    3.1574    0.0000 C   0  0  0  0  0  0  0  0  0  0  0  0
   -1.8336    3.8767    0.0000 N   0  0  0  0  0  0  0  0  0  0  0  0
    0.9746   -0.0798    0.0000 H   0  0  0  0  0  0  0  0  0  0  0  0
  2  1  2  0  0  0  0
  3  1  1  0  0  0  0
  3  6  1  0  0  0  0
  4  2  1  0  0  0  0
  4 12  1  0  0  0  0
  5  4  1  0  0  0  0
  5  3  2  0  0  0  0
  7  6  2  0  0  0  0
  7 10  1  0  0  0  0
  8  7  1  0  0  0  0
  9  5  1  0  0  0  0
  9  8  2  0  0  0  0
 11 10  3  0  0  0  0
M  END
$$$$
[N-]=[N+]=O
 OpenBabel07182308452D

  3  2  0  0  0  0  0  0  0  0999 V2000
    0.0050    0.0000    0.0000 N   0  3  0  0  0  0  0  0  0  0  0  0
   -0.8250    0.0000    0.0000 N   0  5  0  0  0  0  0  0  0  0  0  0
    0.8250    0.0000    0.0000 O   0  0  0  0  0  0  0  0  0  0  0  0
  1  2  2  0  0  0  0
  1  3  2  0  0  0  0
M  CHG  2   1   1   2  -1
M  END
$$$$
Cc1c(C)cccc1C
 OpenBabel07182308452D

  9  9  0  0  0  0  0  0  0  0999 V2000
    3.4656    3.5277    0.0000 C   0  0  0  0  0  0  0  0  0  0  0  0
    4.1801    3.1152    0.0000 C   0  0  0  0  0  0  0  0  0  0  0  0
    4.8946    3.5277    0.0000 C   0  0  0  0  0  0  0  0  0  0  0  0
    5.6091    3.1152    0.0000 C   0  0  0  0  0  0  0  0  0  0  0  0
    5.6091    2.2902    0.0000 C   0  0  0  0  0  0  0  0  0  0  0  0
    4.8946    1.8777    0.0000 C   0  0  0  0  0  0  0  0  0  0  0  0
    4.8946    1.0527    0.0000 C   0  0  0  0  0  0  0  0  0  0  0  0
    4.1801    2.2902    0.0000 C   0  0  0  0  0  0  0  0  0  0  0  0
    3.4656    1.8777    0.0000 C   0  0  0  0  0  0  0  0  0  0  0  0
  1  2  1  0  0  0  0
  2  3  2  0  0  0  0
  2  8  1  0  0  0  0
  3  4  1  0  0  0  0
  4  5  2  0  0  0  0
  5  6  1  0  0  0  0
  6  7  1  0  0  0  0
  6  8  2  0  0  0  0
  8  9  1  0  0  0  0
M  END
$$$$
Cn1c(C)nc2c1cccc2
 OpenBabel07182308452D

 11 12  0  0  0  0  0  0  0  0999 V2000
    0.9894    0.0272    0.0000 C   0  0  0  0  0  0  0  0  0  0  0  0
    0.2882    0.4323    0.0000 C   0  0  0  0  0  0  0  0  0  0  0  0
   -0.4265    0.0198    0.0000 C   0  0  0  0  0  0  0  0  0  0  0  0
   -0.4267   -0.8052    0.0000 C   0  0  0  0  0  0  0  0  0  0  0  0
    0.2746   -1.2103    0.0000 C   0  0  0  0  0  0  0  0  0  0  0  0
    0.9893   -0.7978    0.0000 C   0  0  0  0  0  0  0  0  0  0  0  0
   -1.2112    0.2749    0.0000 N   0  0  0  0  0  0  0  0  0  0  0  0
   -1.6964   -0.3924    0.0000 C   0  0  0  0  0  0  0  0  0  0  0  0
   -1.2114   -1.0601    0.0000 N   0  0  0  0  0  0  0  0  0  0  0  0
   -1.4645   -1.8382    0.0000 C   0  0  0  0  0  0  0  0  0  0  0  0
   -2.5020   -0.3923    0.0000 C   0  0  0  0  0  0  0  0  0  0  0  0
  1  2  2  0  0  0  0
  1  6  1  0  0  0  0
  2  3  1  0  0  0  0
  3  4  2  0  0  0  0
  3  7  1  0  0  0  0
  4  5  1  0  0  0  0
  4  9  1  0  0  0  0
  5  6  2  0  0  0  0
  7  8  2  0  0  0  0
  8  9  1  0  0  0  0
  8 11  1  0  0  0  0
  9 10  1  0  0  0  0
M  END
$$$$
C[C@@H]1CC[C@@H]2[C@@]34[C@H]1CC[C@@](OO3)(O[C@H]4OC[C@@H]2C)C
 OpenBabel07182308452D

 22 25  0  0  1  0  0  0  0  0999 V2000
   16.4957  -10.5233    0.0000 C   0  0  2  0  0  0  0  0  0  0  0  0
   15.7811  -10.9341    0.0000 C   0  0  1  0  0  0  0  0  0  0  0  0
   17.2171  -10.9410    0.0000 C   0  0  2  0  0  0  0  0  0  0  0  0
   16.4992   -9.7017    0.0000 C   0  0  2  0  0  0  0  0  0  0  0  0
   15.5532  -10.4473    0.0000 O   0  0  0  0  0  0  0  0  0  0  0  0
   15.0078  -10.6303    0.0000 O   0  0  0  0  0  0  0  0  0  0  0  0
   15.7846  -11.7695    0.0000 O   0  0  0  0  0  0  0  0  0  0  0  0
   17.2171  -11.7695    0.0000 C   0  0  2  0  0  0  0  0  0  0  0  0
   17.9282  -10.5267    0.0000 C   0  0  0  0  0  0  0  0  0  0  0  0
   17.2171   -9.2874    0.0000 C   0  0  1  0  0  0  0  0  0  0  0  0
   16.0573   -9.0942    0.0000 C   0  0  0  0  0  0  0  0  0  0  0  0
   15.5567   -9.6223    0.0000 O   0  0  0  0  0  0  0  0  0  0  0  0
   14.7627   -9.8397    0.0000 C   0  0  2  0  0  0  0  0  0  0  0  0
   16.4992  -12.1837    0.0000 C   0  0  0  0  0  0  0  0  0  0  0  0
   17.9317  -12.1803    0.0000 C   0  0  0  0  0  0  0  0  0  0  0  0
   17.9282   -9.7017    0.0000 C   0  0  0  0  0  0  0  0  0  0  0  0
   17.2171   -8.4625    0.0000 C   0  0  0  0  0  0  0  0  0  0  0  0
   15.2288   -9.0769    0.0000 C   0  0  0  0  0  0  0  0  0  0  0  0
   13.9446   -9.8397    0.0000 C   0  0  0  0  0  0  0  0  0  0  0  0
   15.0596  -11.3414    0.0000 H   0  0  0  0  0  0  0  0  0  0  0  0
   17.9248  -11.3518    0.0000 H   0  0  0  0  0  0  0  0  0  0  0  0
   16.4957   -8.8766    0.0000 H   0  0  0  0  0  0  0  0  0  0  0  0
  1  2  1  1  0  0  0
  1  5  1  0  0  0  0
  2  6  1  0  0  0  0
  2  7  1  0  0  0  0
  2 20  1  1  0  0  0
  3  1  1  6  0  0  0
  3  9  1  0  0  0  0
  3 21  1  0  0  0  0
  4  1  1  6  0  0  0
  4 11  1  0  0  0  0
  4 22  1  0  0  0  0
  5 12  1  0  0  0  0
  6 13  1  0  0  0  0
  7 14  1  0  0  0  0
  8  3  1  1  0  0  0
  8 15  1  0  0  0  0
  8 14  1  0  0  0  0
  9 16  1  0  0  0  0
 10  4  1  6  0  0  0
 10 17  1  0  0  0  0
 10 16  1  0  0  0  0
 11 18  1  0  0  0  0
 13 19  1  6  0  0  0
 13 12  1  0  0  0  0
 13 18  1  0  0  0  0
M  END
$$$$
O=C1CCNC(=O)N1
 OpenBabel07182308452D

 10 10  0  0  0  0  0  0  0  0999 V2000
    1.8080    5.6679    0.0000 N   0  0  0  0  0  0  0  0  0  0  0  0
    0.9747    5.6804    0.0000 C   0  0  0  0  0  0  0  0  0  0  0  0
    0.5498    4.9680    0.0000 N   0  0  0  0  0  0  0  0  0  0  0  0
    2.2080    4.9430    0.0000 C   0  0  0  0  0  0  0  0  0  0  0  0
    0.9497    4.2474    0.0000 C   0  0  0  0  0  0  0  0  0  0  0  0
    1.7747    4.2306    0.0000 C   0  0  0  0  0  0  0  0  0  0  0  0
    0.5749    6.4053    0.0000 O   0  0  0  0  0  0  0  0  0  0  0  0
    3.0370    4.9222    0.0000 O   0  0  0  0  0  0  0  0  0  0  0  0
    2.3148    6.5119    0.0000 H   0  0  0  0  0  0  0  0  0  0  0  0
   -0.4346    4.9833    0.0000 H   0  0  0  0  0  0  0  0  0  0  0  0
  1  4  1  0  0  0  0
  1  2  1  0  0  0  0
  1  9  1  0  0  0  0
  2  3  1  0  0  0  0
  3  5  1  0  0  0  0
  3 10  1  0  0  0  0
  4  6  1  0  0  0  0
  5  6  1  0  0  0  0
  7  2  2  0  0  0  0
  8  4  2  0  0  0  0
M  END
$$$$
C[C@H]1CCCCN1
 OpenBabel07182308452D

 10 10  0  0  0  0  0  0  0  0999 V2000
    0.0000    0.2467    0.0000 C   0  0  0  0  0  0  0  0  0  0  0  0
   -0.7145    0.6592    0.0000 C   0  0  1  0  0  0  0  0  0  0  0  0
   -0.7145    1.4842    0.0000 C   0  0  0  0  0  0  0  0  0  0  0  0
   -1.4290    0.2467    0.0000 N   0  0  0  0  0  0  0  0  0  0  0  0
   -1.4290    1.8967    0.0000 C   0  0  0  0  0  0  0  0  0  0  0  0
   -2.1435    0.6592    0.0000 C   0  0  0  0  0  0  0  0  0  0  0  0
   -2.1435    1.4843    0.0000 C   0  0  0  0  0  0  0  0  0  0  0  0
   -0.4126   -0.4676    0.0000 H   0  0  0  0  0  0  0  0  0  0  0  0
   -0.7820   -0.1369    0.0000 H   0  0  0  0  0  0  0  0  0  0  0  0
   -1.4290   -0.7733    0.0000 H   0  0  0  0  0  0  0  0  0  0  0  0
  1  2  1  0  0  0  0
  1  8  1  0  0  0  0
  2  3  1  0  0  0  0
  2  4  1  0  0  0  0
  2  9  1  1  0  0  0
  3  5  1  0  0  0  0
  4  6  1  0  0  0  0
  4 10  1  0  0  0  0
  5  7  1  0  0  0  0
  6  7  1  0  0  0  0
M  END
$$$$
C[N+]12CC[NH+]3[Gd-]42[N+](C)(CC3)CC[N+]4(CC1)C
 OpenBabel07182308452D

 16 19  0  0  0  0  0  0  0  0999 V2000
   -1.6502   -1.5264    0.0000 C   0  0  0  0  0  0  0  0  0  0  0  0
   -1.2376   -0.7838    0.0000 N   0  3  3  0  0  0  0  0  0  0  0  0
    0.4125   -0.8250    0.0000 N   0  3  3  0  0  0  0  0  0  0  0  0
   -1.2376    0.8662    0.0000 N   0  3  3  0  0  0  0  0  0  0  0  0
   -1.6502    1.5675    0.0000 C   0  0  0  0  0  0  0  0  0  0  0  0
    0.8250    1.5675    0.0000 C   0  0  0  0  0  0  0  0  0  0  0  0
    0.4125    0.8662    0.0000 N   0  3  3  0  0  0  0  0  0  0  0  0
    1.1138   -0.4125    0.0000 C   0  0  0  0  0  0  0  0  0  0  0  0
    1.1138    0.4125    0.0000 C   0  0  0  0  0  0  0  0  0  0  0  0
   -0.8251   -1.5264    0.0000 C   0  0  0  0  0  0  0  0  0  0  0  0
    0.0000   -1.5264    0.0000 C   0  0  0  0  0  0  0  0  0  0  0  0
   -1.9802    0.4537    0.0000 C   0  0  0  0  0  0  0  0  0  0  0  0
   -1.9802   -0.3713    0.0000 C   0  0  0  0  0  0  0  0  0  0  0  0
    0.0000    1.5675    0.0000 C   0  0  0  0  0  0  0  0  0  0  0  0
   -0.8251    1.5675    0.0000 C   0  0  0  0  0  0  0  0  0  0  0  0
   -0.3648    0.0753    0.0000 Gd  0  5  3  0  0  0  0  0  0  0  0  0
  1  2  1  0  0  0  0
  2 10  1  0  0  0  0
  2 16  1  0  0  0  0
  3  8  1  0  0  0  0
  3 16  1  0  0  0  0
  4  5  1  0  0  0  0
  4 12  1  0  0  0  0
  4 16  1  0  0  0  0
  6  7  1  0  0  0  0
  7 14  1  0  0  0  0
  8  9  1  0  0  0  0
  9  7  1  0  0  0  0
 10 11  1  0  0  0  0
 11  3  1  0  0  0  0
 12 13  1  0  0  0  0
 13  2  1  0  0  0  0
 14 15  1  0  0  0  0
 15  4  1  0  0  0  0
 16  7  1  0  0  0  0
M  CHG  5   2   1   3   1   4   1   7   1  16  -1
M  END
$$$$
Cc1cccc(c1)I
 OpenBabel07182308452D

  8  8  0  0  0  0  0  0  0  0999 V2000
    1.4289    0.0000    0.0000 C   0  0  0  0  0  0  0  0  0  0  0  0
    0.7145   -0.4125    0.0000 C   0  0  0  0  0  0  0  0  0  0  0  0
    0.0000    0.0000    0.0000 C   0  0  0  0  0  0  0  0  0  0  0  0
    0.0000    0.8250    0.0000 C   0  0  0  0  0  0  0  0  0  0  0  0
    0.7145    1.2375    0.0000 C   0  0  0  0  0  0  0  0  0  0  0  0
    1.4289    0.8250    0.0000 C   0  0  0  0  0  0  0  0  0  0  0  0
    0.7145    2.0625    0.0000 I   0  0  0  0  0  0  0  0  0  0  0  0
   -0.7145   -0.4125    0.0000 C   0  0  0  0  0  0  0  0  0  0  0  0
  1  2  2  0  0  0  0
  1  6  1  0  0  0  0
  2  3  1  0  0  0  0
  3  4  2  0  0  0  0
  3  8  1  0  0  0  0
  4  5  1  0  0  0  0
  5  6  2  0  0  0  0
  5  7  1  0  0  0  0
M  END
$$$$
Clc1ccc2c(c1)C(=C)c1c2ccc(c1)Cl
 OpenBabel07182308452D

 16 18  0  0  0  0  0  0  0  0999 V2000
    7.0875    0.0820    0.0000 C   0  0  0  0  0  0  0  0  0  0  0  0
    7.8020    0.4945    0.0000 C   0  0  0  0  0  0  0  0  0  0  0  0
    8.5866    0.2395    0.0000 C   0  0  0  0  0  0  0  0  0  0  0  0
    9.0715    0.9070    0.0000 C   0  0  0  0  0  0  0  0  0  0  0  0
    9.8920    0.8207    0.0000 C   0  0  0  0  0  0  0  0  0  0  0  0
   10.2275    0.0671    0.0000 C   0  0  0  0  0  0  0  0  0  0  0  0
    9.7426   -0.6004    0.0000 C   0  0  0  0  0  0  0  0  0  0  0  0
    8.9221   -0.5141    0.0000 C   0  0  0  0  0  0  0  0  0  0  0  0
   11.0480   -0.0192    0.0000 Cl  0  0  0  0  0  0  0  0  0  0  0  0
    8.5866    1.5744    0.0000 C   0  0  0  0  0  0  0  0  0  0  0  0
    8.8415    2.3590    0.0000 C   0  0  0  0  0  0  0  0  0  0  0  0
    7.8020    1.3195    0.0000 C   0  0  0  0  0  0  0  0  0  0  0  0
    7.0875    1.7320    0.0000 C   0  0  0  0  0  0  0  0  0  0  0  0
    6.3730    1.3195    0.0000 C   0  0  0  0  0  0  0  0  0  0  0  0
    6.3730    0.4945    0.0000 C   0  0  0  0  0  0  0  0  0  0  0  0
    5.6585    1.7320    0.0000 Cl  0  0  0  0  0  0  0  0  0  0  0  0
  1  2  2  0  0  0  0
  1 15  1  0  0  0  0
  2  3  1  0  0  0  0
  2 12  1  0  0  0  0
  3  4  2  0  0  0  0
  3  8  1  0  0  0  0
  4  5  1  0  0  0  0
  4 10  1  0  0  0  0
  5  6  2  0  0  0  0
  6  7  1  0  0  0  0
  6  9  1  0  0  0  0
  7  8  2  0  0  0  0
 10 11  2  0  0  0  0
 10 12  1  0  0  0  0
 12 13  2  0  0  0  0
 13 14  1  0  0  0  0
 14 15  2  0  0  0  0
 14 16  1  0  0  0  0
M  END
$$$$
O=C1CC[C@]2(C(=C1)CC[C@@H]1[C@@H]2CC[C@]2([C@H]1CC[C@]2(C)O)C)C
 OpenBabel07182308452D
Created with ChemWriter - http://chemwriter.com
 26 29  0  0  1  0  0  0  0  0999 V2000
   11.5249  -14.3560    0.0000 C   0  0  0  0  0  0  0  0  0  0  0  0
   10.0258  -15.3386    0.0000 C   0  0  0  0  0  0  0  0  0  0  0  0
   10.0258  -12.8637    0.0000 C   0  0  0  0  0  0  0  0  0  0  0  0
   12.0098  -13.6886    0.0000 C   0  0  0  0  0  0  0  0  0  0  0  0
    9.3113  -13.2761    0.0000 C   0  0  0  0  0  0  0  0  0  0  0  0
    7.8824  -14.1011    0.0000 C   0  0  0  0  0  0  0  0  0  0  0  0
    7.8824  -15.7511    0.0000 C   0  0  0  0  0  0  0  0  0  0  0  0
   10.0258  -14.5136    0.0000 C   0  0  2  0  0  0  0  0  0  0  0  0
   10.0258  -13.6886    0.0000 H   0  0  0  0  0  0  0  0  0  0  0  0
    9.3113  -14.1011    0.0000 C   0  0  1  0  0  0  0  0  0  0  0  0
    9.3113  -14.9261    0.0000 H   0  0  0  0  0  0  0  0  0  0  0  0
   10.7402  -13.2761    0.0000 C   0  0  1  0  0  0  0  0  0  0  0  0
   10.7402  -12.4512    0.0000 C   0  0  0  0  0  0  0  0  0  0  0  0
   10.7402  -14.1011    0.0000 C   0  0  1  0  0  0  0  0  0  0  0  0
   10.7402  -14.9261    0.0000 H   0  0  0  0  0  0  0  0  0  0  0  0
    8.5968  -14.5136    0.0000 C   0  0  1  0  0  0  0  0  0  0  0  0
    8.5968  -13.6886    0.0000 C   0  0  0  0  0  0  0  0  0  0  0  0
    7.1679  -14.5136    0.0000 C   0  0  0  0  0  0  0  0  0  0  0  0
    7.1679  -15.3386    0.0000 C   0  0  0  0  0  0  0  0  0  0  0  0
    6.4535  -15.7511    0.0000 O   0  0  0  0  0  0  0  0  0  0  0  0
    8.5968  -15.3386    0.0000 C   0  0  0  0  0  0  0  0  0  0  0  0
    9.3113  -15.7511    0.0000 C   0  0  0  0  0  0  0  0  0  0  0  0
   11.5249  -13.0212    0.0000 C   0  0  2  0  0  0  0  0  0  0  0  0
   12.2393  -13.1423    0.0000 C   0  0  0  0  0  0  0  0  0  0  0  0
   11.5249  -12.1962    0.0000 O   0  0  0  0  0  0  0  0  0  0  0  0
   12.3649  -11.7112    0.0000 H   0  0  0  0  0  0  0  0  0  0  0  0
  2 22  1  0  0  0  0
  3  5  1  0  0  0  0
  4  1  1  0  0  0  0
  6 18  1  0  0  0  0
  7 19  1  0  0  0  0
  8 14  1  6  0  0  0
  8  2  1  0  0  0  0
  8  9  1  0  0  0  0
 10  8  1  1  0  0  0
 10  5  1  0  0  0  0
 10 11  1  0  0  0  0
 12 14  1  1  0  0  0
 12  3  1  0  0  0  0
 12 13  1  0  0  0  0
 14  1  1  0  0  0  0
 14 15  1  6  0  0  0
 16 10  1  6  0  0  0
 16 21  1  0  0  0  0
 16  6  1  0  0  0  0
 16 17  1  0  0  0  0
 18 19  1  0  0  0  0
 19 20  2  0  0  0  0
 21  7  2  0  0  0  0
 22 21  1  0  0  0  0
 23 12  1  6  0  0  0
 23  4  1  0  0  0  0
 23 25  1  0  0  0  0
 23 24  1  0  0  0  0
 25 26  1  0  0  0  0
M  END
$$$$
CC1=CCC=C(N1)C#N
 OpenBabel07182308452D

 10 10  0  0  0  0  0  0  0  0999 V2000
    0.7145   -0.4125    0.0000 C   0  0  0  0  0  0  0  0  0  0  0  0
    0.7145   -1.2375    0.0000 C   0  0  0  0  0  0  0  0  0  0  0  0
    1.4289   -1.6500    0.0000 C   0  0  0  0  0  0  0  0  0  0  0  0
    1.4289   -2.4750    0.0000 C   0  0  0  0  0  0  0  0  0  0  0  0
    0.7145   -2.8875    0.0000 C   0  0  0  0  0  0  0  0  0  0  0  0
    0.0000   -2.4750    0.0000 C   0  0  0  0  0  0  0  0  0  0  0  0
    0.0000   -1.6500    0.0000 N   0  0  0  0  0  0  0  0  0  0  0  0
   -0.7145   -2.8875    0.0000 C   0  0  0  0  0  0  0  0  0  0  0  0
   -1.4289   -3.3000    0.0000 N   0  0  0  0  0  0  0  0  0  0  0  0
   -0.8526   -1.1577    0.0000 H   0  0  0  0  0  0  0  0  0  0  0  0
  1  2  1  0  0  0  0
  2  3  2  0  0  0  0
  2  7  1  0  0  0  0
  3  4  1  0  0  0  0
  4  5  1  0  0  0  0
  5  6  2  0  0  0  0
  6  7  1  0  0  0  0
  6  8  1  0  0  0  0
  7 10  1  0  0  0  0
  8  9  3  0  0  0  0
M  END
$$$$
CN1CCO[C@@H](C1)O
 OpenBabel07182308452D

  8  8  0  0  1  0  0  0  0  0999 V2000
    6.6515    0.6577    0.0000 O   0  0  0  0  0  0  0  0  0  0  0  0
    5.2224    0.6577    0.0000 O   0  0  0  0  0  0  0  0  0  0  0  0
    6.6515   -0.9923    0.0000 N   0  0  0  0  0  0  0  0  0  0  0  0
    5.9370   -0.5798    0.0000 C   0  0  0  0  0  0  0  0  0  0  0  0
    5.9370    0.2452    0.0000 C   0  0  2  0  0  0  0  0  0  0  0  0
    7.3659   -0.5798    0.0000 C   0  0  0  0  0  0  0  0  0  0  0  0
    7.3659    0.2452    0.0000 C   0  0  0  0  0  0  0  0  0  0  0  0
    6.6515   -1.8173    0.0000 C   0  0  0  0  0  0  0  0  0  0  0  0
  1  5  1  0  0  0  0
  1  7  1  0  0  0  0
  3  4  1  0  0  0  0
  3  6  1  0  0  0  0
  3  8  1  0  0  0  0
  4  5  1  0  0  0  0
  5  2  1  1  0  0  0
  6  7  1  0  0  0  0
M  END
$$$$
O=c1nc[nH][nH]1
 OpenBabel07182308452D

  7  7  0  0  1  0  0  0  0  0999 V2000
    9.4922   -2.4212    0.0000 O   0  0  0  0  0  0  0  0  0  0  0  0
    7.4521   -3.0504    0.0000 N   0  0  0  0  0  0  0  0  0  0  0  0
    8.1197   -1.8943    0.0000 N   0  0  0  0  0  0  0  0  0  0  0  0
    8.2592   -3.2219    0.0000 N   0  0  0  0  0  0  0  0  0  0  0  0
    7.3659   -2.2299    0.0000 C   0  0  0  0  0  0  0  0  0  0  0  0
    8.6717   -2.5074    0.0000 C   0  0  0  0  0  0  0  0  0  0  0  0
    6.7205   -3.7092    0.0000 H   0  0  0  0  0  0  0  0  0  0  0  0
  1  6  2  0  0  0  0
  2  4  1  0  0  0  0
  2  5  1  0  0  0  0
  2  7  1  0  0  0  0
  3  5  2  0  0  0  0
  3  6  1  0  0  0  0
  4  6  1  0  0  0  0
M  END
$$$$
C[C@]12Cc3c[nH]nc3C[C@@H]1CC[C@@H]1[C@@H]2CC[C@]2([C@H]1CC[C@]2(C)O)C
 OpenBabel07182308452D

 30 34  0  0  0  0  0  0  0  0999 V2000
   20.7380  -13.9364    0.0000 C   0  0  0  0  0  0  0  0  0  0  0  0
   20.2188  -14.5776    0.0000 N   0  0  0  0  0  0  0  0  0  0  0  0
   20.6681  -15.2694    0.0000 N   0  0  0  0  0  0  0  0  0  0  0  0
   21.4650  -15.0559    0.0000 C   0  0  0  0  0  0  0  0  0  0  0  0
   21.5082  -14.2321    0.0000 C   0  0  0  0  0  0  0  0  0  0  0  0
   22.2227  -13.8196    0.0000 C   0  0  0  0  0  0  0  0  0  0  0  0
   22.2227  -15.4696    0.0000 C   0  0  0  0  0  0  0  0  0  0  0  0
   22.9371  -15.0571    0.0000 C   0  0  1  0  0  0  0  0  0  0  0  0
   22.9371  -14.2321    0.0000 C   0  0  1  0  0  0  0  0  0  0  0  0
   23.6516  -13.8196    0.0000 C   0  0  2  0  0  0  0  0  0  0  0  0
   23.6516  -15.4696    0.0000 C   0  0  0  0  0  0  0  0  0  0  0  0
   24.3661  -15.0571    0.0000 C   0  0  0  0  0  0  0  0  0  0  0  0
   24.3661  -14.2321    0.0000 C   0  0  1  0  0  0  0  0  0  0  0  0
   24.3661  -12.5821    0.0000 C   0  0  0  0  0  0  0  0  0  0  0  0
   23.6516  -12.9946    0.0000 C   0  0  0  0  0  0  0  0  0  0  0  0
   25.0805  -13.8196    0.0000 C   0  0  1  0  0  0  0  0  0  0  0  0
   25.8076  -12.7001    0.0000 C   0  0  2  0  0  0  0  0  0  0  0  0
   25.0805  -12.9946    0.0000 C   0  0  1  0  0  0  0  0  0  0  0  0
   25.8774  -14.0331    0.0000 C   0  0  0  0  0  0  0  0  0  0  0  0
   26.3267  -13.3412    0.0000 C   0  0  0  0  0  0  0  0  0  0  0  0
   22.9371  -13.4071    0.0000 C   0  0  0  0  0  0  0  0  0  0  0  0
   22.9371  -15.8821    0.0000 H   0  0  0  0  0  0  0  0  0  0  0  0
   23.6516  -14.6446    0.0000 H   0  0  0  0  0  0  0  0  0  0  0  0
   24.3661  -13.4071    0.0000 H   0  0  0  0  0  0  0  0  0  0  0  0
   25.2941  -14.6165    0.0000 H   0  0  0  0  0  0  0  0  0  0  0  0
   25.0805  -12.1696    0.0000 C   0  0  0  0  0  0  0  0  0  0  0  0
   25.8076  -11.8751    0.0000 O   0  0  0  0  0  0  0  0  0  0  0  0
   26.5220  -12.2876    0.0000 C   0  0  0  0  0  0  0  0  0  0  0  0
   19.2356  -14.5261    0.0000 H   0  0  0  0  0  0  0  0  0  0  0  0
   26.6476  -11.3901    0.0000 H   0  0  0  0  0  0  0  0  0  0  0  0
  1  2  1  0  0  0  0
  1  5  2  0  0  0  0
  2  3  1  0  0  0  0
  2 29  1  0  0  0  0
  3  4  2  0  0  0  0
  4  7  1  0  0  0  0
  5  4  1  0  0  0  0
  6  5  1  0  0  0  0
  6  9  1  0  0  0  0
  7  8  1  0  0  0  0
  8  9  1  6  0  0  0
  8 11  1  0  0  0  0
  8 22  1  0  0  0  0
  9 10  1  6  0  0  0
  9 21  1  0  0  0  0
 10 13  1  1  0  0  0
 10 23  1  0  0  0  0
 11 12  1  0  0  0  0
 12 13  1  0  0  0  0
 13 16  1  6  0  0  0
 13 24  1  0  0  0  0
 14 15  1  0  0  0  0
 14 18  1  0  0  0  0
 15 10  1  0  0  0  0
 16 19  1  0  0  0  0
 16 18  1  6  0  0  0
 16 25  1  0  0  0  0
 17 18  1  6  0  0  0
 17 20  1  0  0  0  0
 17 27  1  0  0  0  0
 17 28  1  0  0  0  0
 18 26  1  1  0  0  0
 19 20  1  0  0  0  0
 27 30  1  0  0  0  0
M  END
$$$$
[O-]C(=O)[O-]
 OpenBabel07182308452D

  4  3  0  0  0  0  0  0  0  0999 V2000
   -0.0409    0.9905    0.0000 O   0  5  0  0  0  0  0  0  0  0  0  0
    1.3621    0.9905    0.0000 O   0  5  0  0  0  0  0  0  0  0  0  0
    0.6189    0.5777    0.0000 C   0  0  0  0  0  0  0  0  0  0  0  0
    0.6189   -0.2473    0.0000 O   0  0  0  0  0  0  0  0  0  0  0  0
  1  3  1  0  0  0  0
  2  3  1  0  0  0  0
  3  4  2  0  0  0  0
M  CHG  2   1  -1   2  -1
M  END
$$$$
CN1C=C(O)c2c(S1(=O)=O)cc(s2)Cl
 OpenBabel07182308452D

 15 16  0  0  0  0  0  0  0  0999 V2000
   -3.1907    0.9214    0.0000 Cl  0  0  0  0  0  0  0  0  0  0  0  0
   -0.3816    1.7464    0.0000 S   0  0  0  0  0  0  0  0  0  0  0  0
   -1.8808    0.2540    0.0000 S   0  0  0  0  0  0  0  0  0  0  0  0
    0.1486    2.3785    0.0000 O   0  0  0  0  0  0  0  0  0  0  0  0
   -0.9120    2.3785    0.0000 O   0  0  0  0  0  0  0  0  0  0  0  0
   -0.3816   -0.7285    0.0000 O   0  0  0  0  0  0  0  0  0  0  0  0
    0.3328    1.3339    0.0000 N   0  0  0  0  0  0  0  0  0  0  0  0
   -1.0960    1.3339    0.0000 C   0  0  0  0  0  0  0  0  0  0  0  0
   -1.0960    0.5089    0.0000 C   0  0  0  0  0  0  0  0  0  0  0  0
    0.3328    0.5089    0.0000 C   0  0  0  0  0  0  0  0  0  0  0  0
   -0.3816    0.0964    0.0000 C   0  0  0  0  0  0  0  0  0  0  0  0
   -1.8808    1.5888    0.0000 C   0  0  0  0  0  0  0  0  0  0  0  0
   -2.3657    0.9214    0.0000 C   0  0  0  0  0  0  0  0  0  0  0  0
    1.0473    1.7464    0.0000 C   0  0  0  0  0  0  0  0  0  0  0  0
   -1.1931   -1.1970    0.0000 H   0  0  0  0  0  0  0  0  0  0  0  0
  1 13  1  0  0  0  0
  2  4  2  0  0  0  0
  2  5  2  0  0  0  0
  2  7  1  0  0  0  0
  2  8  1  0  0  0  0
  3  9  1  0  0  0  0
  3 13  1  0  0  0  0
  6 11  1  0  0  0  0
  6 15  1  0  0  0  0
  7 10  1  0  0  0  0
  7 14  1  0  0  0  0
  8  9  2  0  0  0  0
  8 12  1  0  0  0  0
  9 11  1  0  0  0  0
 10 11  2  0  0  0  0
 12 13  2  0  0  0  0
M  END
$$$$
Brc1cc(C)c(c(c1)Br)N
 OpenBabel07182308452D

 12 12  0  0  0  0  0  0  0  0999 V2000
    1.7861    1.4437    0.0000 N   0  0  0  0  0  0  0  0  0  0  0  0
    1.7861    0.6187    0.0000 C   0  0  0  0  0  0  0  0  0  0  0  0
    2.5006    0.2062    0.0000 C   0  0  0  0  0  0  0  0  0  0  0  0
    3.2151    0.6187    0.0000 Br  0  0  0  0  0  0  0  0  0  0  0  0
    2.5006   -0.6187    0.0000 C   0  0  0  0  0  0  0  0  0  0  0  0
    1.7861   -1.0312    0.0000 C   0  0  0  0  0  0  0  0  0  0  0  0
    1.7861   -1.8562    0.0000 Br  0  0  0  0  0  0  0  0  0  0  0  0
    1.0717   -0.6187    0.0000 C   0  0  0  0  0  0  0  0  0  0  0  0
    1.0717    0.2062    0.0000 C   0  0  0  0  0  0  0  0  0  0  0  0
    0.3572    0.6187    0.0000 C   0  0  0  0  0  0  0  0  0  0  0  0
    2.6387    1.9360    0.0000 H   0  0  0  0  0  0  0  0  0  0  0  0
    0.9335    1.9360    0.0000 H   0  0  0  0  0  0  0  0  0  0  0  0
  1  2  1  0  0  0  0
  1 11  1  0  0  0  0
  1 12  1  0  0  0  0
  2  3  2  0  0  0  0
  2  9  1  0  0  0  0
  3  4  1  0  0  0  0
  3  5  1  0  0  0  0
  5  6  2  0  0  0  0
  6  7  1  0  0  0  0
  6  8  1  0  0  0  0
  8  9  2  0  0  0  0
  9 10  1  0  0  0  0
M  END
$$$$
N[C@@H]1CC[C@H](CC1)O
 OpenBabel07182308452D

 10 10  0  0  0  0  0  0  0  0999 V2000
   -0.3572    0.2062    0.0000 N   0  0  0  0  0  0  0  0  0  0  0  0
   -1.0717    0.6187    0.0000 C   0  0  2  0  0  0  0  0  0  0  0  0
   -1.7861    0.2062    0.0000 C   0  0  0  0  0  0  0  0  0  0  0  0
   -2.5006    0.6187    0.0000 C   0  0  0  0  0  0  0  0  0  0  0  0
   -2.5006    1.4437    0.0000 C   0  0  1  0  0  0  0  0  0  0  0  0
   -3.2151    1.8562    0.0000 O   0  0  0  0  0  0  0  0  0  0  0  0
   -1.7861    1.8562    0.0000 C   0  0  0  0  0  0  0  0  0  0  0  0
   -1.0717    1.4437    0.0000 C   0  0  0  0  0  0  0  0  0  0  0  0
   -0.3572   -0.8138    0.0000 H   0  0  0  0  0  0  0  0  0  0  0  0
   -3.2151    2.8262    0.0000 H   0  0  0  0  0  0  0  0  0  0  0  0
  1  9  1  0  0  0  0
  2  1  1  6  0  0  0
  2  3  1  0  0  0  0
  2  8  1  0  0  0  0
  3  4  1  0  0  0  0
  4  5  1  0  0  0  0
  5  6  1  1  0  0  0
  5  7  1  0  0  0  0
  6 10  1  0  0  0  0
  7  8  1  0  0  0  0
M  END
$$$$
C=C1NCCc2c1cc(O)c(c2)O
 OpenBabel07182308452D

 14 15  0  0  0  0  0  0  0  0999 V2000
    3.0788    2.4932    0.0000 O   0  0  0  0  0  0  0  0  0  0  0  0
    3.0788    0.8432    0.0000 O   0  0  0  0  0  0  0  0  0  0  0  0
    6.7071    1.2385    0.0000 N   0  0  0  0  0  0  0  0  0  0  0  0
    5.9596    2.5217    0.0000 C   0  0  0  0  0  0  0  0  0  0  0  0
    5.2221    2.0808    0.0000 C   0  0  0  0  0  0  0  0  0  0  0  0
    5.2221    1.2557    0.0000 C   0  0  0  0  0  0  0  0  0  0  0  0
    6.7071    2.0979    0.0000 C   0  0  0  0  0  0  0  0  0  0  0  0
    5.9596    0.8146    0.0000 C   0  0  0  0  0  0  0  0  0  0  0  0
    4.5077    2.4932    0.0000 C   0  0  0  0  0  0  0  0  0  0  0  0
    4.5077    0.8432    0.0000 C   0  0  0  0  0  0  0  0  0  0  0  0
    3.7933    2.0808    0.0000 C   0  0  0  0  0  0  0  0  0  0  0  0
    3.7933    1.2557    0.0000 C   0  0  0  0  0  0  0  0  0  0  0  0
    5.9500   -0.0102    0.0000 C   0  0  0  0  0  0  0  0  0  0  0  0
    7.5578    0.7430    0.0000 H   0  0  0  0  0  0  0  0  0  0  0  0
  1 11  1  0  0  0  0
  2 12  1  0  0  0  0
  3  7  1  0  0  0  0
  3  8  1  0  0  0  0
  3 14  1  0  0  0  0
  4  5  1  0  0  0  0
  4  7  1  0  0  0  0
  5  6  1  0  0  0  0
  5  9  2  0  0  0  0
  6  8  1  0  0  0  0
  6 10  2  0  0  0  0
  8 13  2  0  0  0  0
  9 11  1  0  0  0  0
 10 12  1  0  0  0  0
 11 12  2  0  0  0  0
M  END
$$$$
CC(Cl)(Cl)Cl
 OpenBabel07182308452D

  5  4  0  0  0  0  0  0  0  0999 V2000
    0.1105   -1.2375    0.0000 C   0  0  0  0  0  0  0  0  0  0  0  0
    0.1105   -2.0625    0.0000 C   0  0  0  0  0  0  0  0  0  0  0  0
    0.1105   -2.8875    0.0000 Cl  0  0  0  0  0  0  0  0  0  0  0  0
    0.9355   -2.0625    0.0000 Cl  0  0  0  0  0  0  0  0  0  0  0  0
   -0.7145   -2.0625    0.0000 Cl  0  0  0  0  0  0  0  0  0  0  0  0
  1  2  1  0  0  0  0
  2  3  1  0  0  0  0
  2  4  1  0  0  0  0
  2  5  1  0  0  0  0
M  END
$$$$
[Mn+2]
 OpenBabel07182308452D

  1  0  0  0  0  0  0  0  0  0999 V2000
    0.0000    0.0000    0.0000 Mn  0  2  0  0  0 15  0  0  0  0  0  0
M  CHG  1   1   2
M  END
$$$$
NC#N
 OpenBabel07182308452D

  4  3  0  0  0  0  0  0  0  0999 V2000
    1.0655    1.1262    0.0000 N   0  0  0  0  0  0  0  0  0  0  0  0
    1.7981    0.7273    0.0000 C   0  0  0  0  0  0  0  0  0  0  0  0
    2.5314    0.3772    0.0000 N   0  0  0  0  0  0  0  0  0  0  0  0
    1.0443    2.1105    0.0000 H   0  0  0  0  0  0  0  0  0  0  0  0
  1  2  1  0  0  0  0
  1  4  1  0  0  0  0
  2  3  3  0  0  0  0
M  END
$$$$
CN1CCC(=C2c3ccccc3CCn3c2ncc3)CC1
 OpenBabel07182308452D

 21 24  0  0  0  0  0  0  0  0999 V2000
    3.5539   -3.0422    0.0000 C   0  0  0  0  0  0  0  0  0  0  0  0
    3.5539   -2.2172    0.0000 N   0  0  0  0  0  0  0  0  0  0  0  0
    4.2684   -1.8047    0.0000 C   0  0  0  0  0  0  0  0  0  0  0  0
    4.2684   -0.9797    0.0000 C   0  0  0  0  0  0  0  0  0  0  0  0
    3.5539   -0.5672    0.0000 C   0  0  0  0  0  0  0  0  0  0  0  0
    3.5539    0.2578    0.0000 C   0  0  0  0  0  0  0  0  0  0  0  0
    4.2972    0.6157    0.0000 C   0  0  0  0  0  0  0  0  0  0  0  0
    4.9020    0.0546    0.0000 C   0  0  0  0  0  0  0  0  0  0  0  0
    5.6903    0.2978    0.0000 C   0  0  0  0  0  0  0  0  0  0  0  0
    5.8739    1.1021    0.0000 C   0  0  0  0  0  0  0  0  0  0  0  0
    5.2691    1.6632    0.0000 C   0  0  0  0  0  0  0  0  0  0  0  0
    4.4808    1.4200    0.0000 C   0  0  0  0  0  0  0  0  0  0  0  0
    3.9664    2.0651    0.0000 C   0  0  0  0  0  0  0  0  0  0  0  0
    3.1414    2.0651    0.0000 C   0  0  0  0  0  0  0  0  0  0  0  0
    2.6270    1.4200    0.0000 N   0  0  0  0  0  0  0  0  0  0  0  0
    2.8106    0.6157    0.0000 C   0  0  0  0  0  0  0  0  0  0  0  0
    2.1024    0.1926    0.0000 N   0  0  0  0  0  0  0  0  0  0  0  0
    1.4811    0.7354    0.0000 C   0  0  0  0  0  0  0  0  0  0  0  0
    1.8054    1.4940    0.0000 C   0  0  0  0  0  0  0  0  0  0  0  0
    2.8394   -0.9797    0.0000 C   0  0  0  0  0  0  0  0  0  0  0  0
    2.8394   -1.8047    0.0000 C   0  0  0  0  0  0  0  0  0  0  0  0
  1  2  1  0  0  0  0
  2  3  1  0  0  0  0
  2 21  1  0  0  0  0
  3  4  1  0  0  0  0
  4  5  1  0  0  0  0
  5  6  2  0  0  0  0
  5 20  1  0  0  0  0
  6  7  1  0  0  0  0
  6 16  1  0  0  0  0
  7  8  2  0  0  0  0
  7 12  1  0  0  0  0
  8  9  1  0  0  0  0
  9 10  2  0  0  0  0
 10 11  1  0  0  0  0
 11 12  2  0  0  0  0
 12 13  1  0  0  0  0
 13 14  1  0  0  0  0
 14 15  1  0  0  0  0
 15 16  1  0  0  0  0
 15 19  1  0  0  0  0
 16 17  2  0  0  0  0
 17 18  1  0  0  0  0
 18 19  2  0  0  0  0
 20 21  1  0  0  0  0
M  END
$$$$
[NH4+]
 OpenBabel07182308452D

  5  4  0  0  0  0  0  0  0  0999 V2000
   -0.4125    0.0000    0.0000 N   0  3  0  0  0  0  0  0  0  0  0  0
    0.6075    0.0000    0.0000 H   0  0  0  0  0  0  0  0  0  0  0  0
   -0.9225    0.8833    0.0000 H   0  0  0  0  0  0  0  0  0  0  0  0
   -0.9225   -0.8833    0.0000 H   0  0  0  0  0  0  0  0  0  0  0  0
   -1.4325   -0.0000    0.0000 H   0  0  0  0  0  0  0  0  0  0  0  0
  1  2  1  0  0  0  0
  1  3  1  0  0  0  0
  1  4  1  0  0  0  0
  1  5  1  0  0  0  0
M  CHG  1   1   1
M  END
$$$$
Nc1ccc2c(c1)nc(n2C)C
 OpenBabel07182308452D

 12 13  0  0  0  0  0  0  0  0999 V2000
   14.0800   -3.9325    0.0000 C   0  0  0  0  0  0  0  0  0  0  0  0
   13.3655   -3.5200    0.0000 C   0  0  0  0  0  0  0  0  0  0  0  0
   13.3655   -2.6950    0.0000 C   0  0  0  0  0  0  0  0  0  0  0  0
   14.7945   -3.5200    0.0000 C   0  0  0  0  0  0  0  0  0  0  0  0
   14.7945   -2.6950    0.0000 C   0  0  0  0  0  0  0  0  0  0  0  0
   14.0800   -2.2825    0.0000 C   0  0  0  0  0  0  0  0  0  0  0  0
   15.5791   -2.4401    0.0000 N   0  0  0  0  0  0  0  0  0  0  0  0
   16.0640   -3.1076    0.0000 C   0  0  0  0  0  0  0  0  0  0  0  0
   15.5791   -3.7750    0.0000 N   0  0  0  0  0  0  0  0  0  0  0  0
   16.8890   -3.1076    0.0000 C   0  0  0  0  0  0  0  0  0  0  0  0
   15.9916   -1.7257    0.0000 C   0  0  0  0  0  0  0  0  0  0  0  0
   12.6511   -3.9325    0.0000 N   0  0  0  0  0  0  0  0  0  0  0  0
  1  2  1  0  0  0  0
  1  4  2  0  0  0  0
  2  3  2  0  0  0  0
  2 12  1  0  0  0  0
  4  5  1  0  0  0  0
  5  6  2  0  0  0  0
  5  7  1  0  0  0  0
  6  3  1  0  0  0  0
  7  8  1  0  0  0  0
  7 11  1  0  0  0  0
  8  9  2  0  0  0  0
  8 10  1  0  0  0  0
  9  4  1  0  0  0  0
M  END
$$$$
Fc1cc(Cl)c2c(c1)c(=O)cc[nH]2
 OpenBabel07182308452D

 13 14  0  0  1  0  0  0  0  0999 V2000
   -1.4289    0.0000    0.0000 F   0  0  0  0  0  0  0  0  0  0  0  0
   -0.7145   -0.4125    0.0000 C   0  0  0  0  0  0  0  0  0  0  0  0
   -0.7145   -1.2375    0.0000 C   0  0  0  0  0  0  0  0  0  0  0  0
    0.0000   -1.6500    0.0000 C   0  0  0  0  0  0  0  0  0  0  0  0
    0.0000   -2.4750    0.0000 Cl  0  0  0  0  0  0  0  0  0  0  0  0
    0.7145   -1.2375    0.0000 C   0  0  0  0  0  0  0  0  0  0  0  0
    0.7145   -0.4125    0.0000 C   0  0  0  0  0  0  0  0  0  0  0  0
    0.0000    0.0000    0.0000 C   0  0  0  0  0  0  0  0  0  0  0  0
    1.4289    0.0000    0.0000 C   0  0  0  0  0  0  0  0  0  0  0  0
    1.4289    0.8250    0.0000 O   0  0  0  0  0  0  0  0  0  0  0  0
    2.1434   -0.4125    0.0000 C   0  0  0  0  0  0  0  0  0  0  0  0
    2.1434   -1.2375    0.0000 C   0  0  0  0  0  0  0  0  0  0  0  0
    1.4289   -1.6500    0.0000 N   0  0  0  0  0  0  0  0  0  0  0  0
  1  2  1  0  0  0  0
  2  3  2  0  0  0  0
  2  8  1  0  0  0  0
  3  4  1  0  0  0  0
  4  5  1  0  0  0  0
  4  6  2  0  0  0  0
  6  7  1  0  0  0  0
  6 13  1  0  0  0  0
  7  8  2  0  0  0  0
  7  9  1  0  0  0  0
  9 10  2  0  0  0  0
  9 11  1  0  0  0  0
 11 12  2  0  0  0  0
 12 13  1  0  0  0  0
M  END
$$$$
N[C@@H]1CCCCNC1
 OpenBabel07182308452D

 10 10  0  0  1  0  0  0  0  0999 V2000
   -1.4289   -1.6500    0.0000 N   0  0  0  0  0  0  0  0  0  0  0  0
   -1.3673   -2.4727    0.0000 C   0  0  0  0  0  0  0  0  0  0  0  0
   -1.9721   -3.0338    0.0000 C   0  0  0  0  0  0  0  0  0  0  0  0
   -2.7878   -2.9109    0.0000 C   0  0  0  0  0  0  0  0  0  0  0  0
   -3.2003   -2.1964    0.0000 C   0  0  0  0  0  0  0  0  0  0  0  0
   -2.8989   -1.4284    0.0000 C   0  0  1  0  0  0  0  0  0  0  0  0
   -3.4601   -0.8237    0.0000 N   0  0  0  0  0  0  0  0  0  0  0  0
   -2.1106   -1.1853    0.0000 C   0  0  0  0  0  0  0  0  0  0  0  0
   -3.1596    0.1510    0.0000 H   0  0  0  0  0  0  0  0  0  0  0  0
   -4.4545   -1.0508    0.0000 H   0  0  0  0  0  0  0  0  0  0  0  0
  1  2  1  0  0  0  0
  1  8  1  0  0  0  0
  2  3  1  0  0  0  0
  3  4  1  0  0  0  0
  4  5  1  0  0  0  0
  5  6  1  0  0  0  0
  6  7  1  1  0  0  0
  6  8  1  0  0  0  0
  7  9  1  0  0  0  0
  7 10  1  0  0  0  0
M  END
$$$$
O[C@H]1C[C@@]2(O)[C@@H](O)[C@@H]3[C@]4(O)CO[C@@H]4CC[C@]3(C(=O)CC(=C1C)C2(C)C)C
 OpenBabel07182308452D

 28 31  0  0  0  0  0  0  0  0999 V2000
    2.1157   -0.3730    0.0000 C   0  0  1  0  0  0  0  0  0  0  0  0
    3.7890    0.0174    0.0000 C   0  0  1  0  0  0  0  0  0  0  0  0
    4.4210    1.1234    0.0000 C   0  0  0  0  0  0  0  0  0  0  0  0
    2.5156    2.0529    0.0000 C   0  0  0  0  0  0  0  0  0  0  0  0
    1.4839    2.0529    0.0000 C   0  0  0  0  0  0  0  0  0  0  0  0
    0.9075    1.4581    0.0000 C   0  0  0  0  0  0  0  0  0  0  0  0
    0.1731    1.4581    0.0000 C   0  0  0  0  0  0  0  0  0  0  0  0
   -0.1986    0.8166    0.0000 C   0  0  2  0  0  0  0  0  0  0  0  0
    0.1731    0.1753    0.0000 C   0  0  0  0  0  0  0  0  0  0  0  0
   -0.1986    2.0902    0.0000 C   0  0  0  0  0  0  0  0  0  0  0  0
    4.4486   -0.4664    0.0000 C   0  0  0  0  0  0  0  0  0  0  0  0
    3.7839   -0.7437    0.0000 O   0  0  0  0  0  0  0  0  0  0  0  0
    2.7253    2.7874    0.0000 O   0  0  0  0  0  0  0  0  0  0  0  0
    2.0708   -1.2526    0.0000 O   0  0  0  0  0  0  0  0  0  0  0  0
    3.1477    0.3798    0.0000 C   0  0  2  0  0  0  0  0  0  0  0  0
    3.1477   -0.4451    0.0000 H   0  0  0  0  0  0  0  0  0  0  0  0
    3.1477    1.1234    0.0000 C   0  0  2  0  0  0  0  0  0  0  0  0
    3.1477    1.9484    0.0000 C   0  0  0  0  0  0  0  0  0  0  0  0
    0.9075    0.1753    0.0000 C   0  0  1  0  0  0  0  0  0  0  0  0
    0.9075   -0.6496    0.0000 O   0  0  0  0  0  0  0  0  0  0  0  0
    1.9845    1.2291    0.0000 C   0  0  0  0  0  0  0  0  0  0  0  0
    1.9845    0.4041    0.0000 C   0  0  0  0  0  0  0  0  0  0  0  0
    3.7890    1.4859    0.0000 C   0  0  0  0  0  0  0  0  0  0  0  0
    4.4210    0.3798    0.0000 C   0  0  1  0  0  0  0  0  0  0  0  0
    5.1356   -0.0326    0.0000 O   0  0  0  0  0  0  0  0  0  0  0  0
    1.2700    0.8166    0.0000 C   0  0  0  0  0  0  0  0  0  0  0  0
   -0.8460    0.4440    0.0000 O   0  0  0  0  0  0  0  0  0  0  0  0
    0.0675   -1.1346    0.0000 H   0  0  0  0  0  0  0  0  0  0  0  0
  1 19  1  6  0  0  0
  1 14  1  0  0  0  0
  2 15  1  1  0  0  0
  2 11  1  0  0  0  0
  2 12  1  0  0  0  0
  4 17  1  0  0  0  0
  4  5  1  0  0  0  0
  5  6  1  0  0  0  0
  6  7  2  0  0  0  0
  7 10  1  0  0  0  0
  8  7  1  0  0  0  0
  8 27  1  6  0  0  0
  9  8  1  0  0  0  0
 11 25  1  0  0  0  0
 13  4  2  0  0  0  0
 15  1  1  0  0  0  0
 15 17  1  6  0  0  0
 15 16  1  0  0  0  0
 17 23  1  0  0  0  0
 17 18  1  1  0  0  0
 19 26  1  0  0  0  0
 19  9  1  0  0  0  0
 19 20  1  1  0  0  0
 20 28  1  0  0  0  0
 23  3  1  0  0  0  0
 24  3  1  0  0  0  0
 24  2  1  1  0  0  0
 24 25  1  0  0  0  0
 26  6  1  0  0  0  0
 26 21  1  0  0  0  0
 26 22  1  0  0  0  0
M  END
$$$$
CC(O)(C)C
 OpenBabel07182308452D

  5  4  0  0  0  0  0  0  0  0999 V2000
   -4.4183    3.3152    0.0000 C   0  0  0  0  0  0  0  0  0  0  0  0
   -3.7040    2.9026    0.0000 O   0  0  0  0  0  0  0  0  0  0  0  0
   -4.4183    4.1402    0.0000 C   0  0  0  0  0  0  0  0  0  0  0  0
   -5.1329    2.9027    0.0000 C   0  0  0  0  0  0  0  0  0  0  0  0
   -5.1329    3.7277    0.0000 C   0  0  0  0  0  0  0  0  0  0  0  0
  1  3  1  0  0  0  0
  1  4  1  0  0  0  0
  1  5  1  0  0  0  0
  2  1  1  0  0  0  0
M  END
$$$$
[Cu+2]
 OpenBabel07182308452D

  1  0  0  0  0  0  0  0  0  0999 V2000
    0.0000    0.0000    0.0000 Cu  0  2  0  0  0 15  0  0  0  0  0  0
M  CHG  1   1   2
M  END
$$$$
O=C1C=C[C@]2(C(=C1)[C@@H](F)C[C@@H]1[C@]2(F)[C@@H](O)C[C@]2([C@H]1CCC2)C)C
 OpenBabel07182308452D

 26 29  0  0  1  0  0  0  0  0999 V2000
    4.7875    0.9666    0.0000 C   0  0  0  0  0  0  0  0  0  0  0  0
    5.0168    0.1741    0.0000 C   0  0  0  0  0  0  0  0  0  0  0  0
    4.3340   -0.2889    0.0000 C   0  0  0  0  0  0  0  0  0  0  0  0
    3.6826    0.2174    0.0000 C   0  0  2  0  0  0  0  0  0  0  0  0
    3.9629    0.9934    0.0000 C   0  0  2  0  0  0  0  0  0  0  0  0
    3.4311    1.6241    0.0000 C   0  0  0  0  0  0  0  0  0  0  0  0
    2.6190    1.4789    0.0000 C   0  0  1  0  0  0  0  0  0  0  0  0
    2.3387    0.7029    0.0000 C   0  0  1  0  0  0  0  0  0  0  0  0
    2.8705    0.0722    0.0000 C   0  0  1  0  0  0  0  0  0  0  0  0
    2.5902   -0.7037    0.0000 C   0  0  0  0  0  0  0  0  0  0  0  0
    1.7781   -0.8489    0.0000 C   0  0  1  0  0  0  0  0  0  0  0  0
    1.2463   -0.2182    0.0000 C   0  0  0  0  0  0  0  0  0  0  0  0
    0.4342   -0.3634    0.0000 C   0  0  0  0  0  0  0  0  0  0  0  0
   -0.0976    0.2673    0.0000 C   0  0  0  0  0  0  0  0  0  0  0  0
   -0.9098    0.1221    0.0000 O   0  0  0  0  0  0  0  0  0  0  0  0
    0.1827    1.0432    0.0000 C   0  0  0  0  0  0  0  0  0  0  0  0
    0.9948    1.1884    0.0000 C   0  0  0  0  0  0  0  0  0  0  0  0
    1.5266    0.5577    0.0000 C   0  0  2  0  0  0  0  0  0  0  0  0
    1.4672    1.3619    0.0000 C   0  0  0  0  0  0  0  0  0  0  0  0
    1.4978   -1.6248    0.0000 F   0  0  0  0  0  0  0  0  0  0  0  0
    2.1376    1.3559    0.0000 F   0  0  0  0  0  0  0  0  0  0  0  0
    2.0872    2.1096    0.0000 O   0  0  0  0  0  0  0  0  0  0  0  0
    4.2096    1.7924    0.0000 C   0  0  0  0  0  0  0  0  0  0  0  0
    3.3407   -0.5961    0.0000 H   0  0  0  0  0  0  0  0  0  0  0  0
    3.6826   -0.6076    0.0000 H   0  0  0  0  0  0  0  0  0  0  0  0
    2.4168    3.0219    0.0000 H   0  0  0  0  0  0  0  0  0  0  0  0
  1  2  1  0  0  0  0
  1  5  1  0  0  0  0
  2  3  1  0  0  0  0
  4  3  1  0  0  0  0
  4  5  1  6  0  0  0
  4 25  1  0  0  0  0
  5  6  1  0  0  0  0
  5 23  1  1  0  0  0
  6  7  1  0  0  0  0
  7  8  1  1  0  0  0
  7 22  1  0  0  0  0
  8  9  1  6  0  0  0
  8 21  1  0  0  0  0
  9  4  1  6  0  0  0
  9 10  1  0  0  0  0
  9 24  1  0  0  0  0
 10 11  1  0  0  0  0
 11 12  1  0  0  0  0
 11 20  1  6  0  0  0
 12 13  2  0  0  0  0
 12 18  1  0  0  0  0
 13 14  1  0  0  0  0
 14 15  2  0  0  0  0
 14 16  1  0  0  0  0
 16 17  2  0  0  0  0
 17 18  1  0  0  0  0
 18  8  1  6  0  0  0
 18 19  1  0  0  0  0
 22 26  1  0  0  0  0
M  END
$$$$
N#C[Fe-4](C#N)(C#N)(C#N)(C#N)C#N
 OpenBabel07182308452D

 13 12  0  0  0  0  0  0  0  0999 V2000
   -2.5280    3.5871    0.0000 N   0  0  0  0  0  0  0  0  0  0  0  0
   -2.5280    1.1120    0.0000 C   0  0  0  0  0  0  0  0  0  0  0  0
   -2.5280    1.9371    0.0000 Fe  0  0  0  0  0  0  0  0  0  0  0  0
   -3.2425    2.3497    0.0000 C   0  0  0  0  0  0  0  0  0  0  0  0
   -2.5280    2.7620    0.0000 C   0  0  0  0  0  0  0  0  0  0  0  0
   -1.8135    2.3497    0.0000 C   0  0  0  0  0  0  0  0  0  0  0  0
   -1.8135    1.5247    0.0000 C   0  0  0  0  0  0  0  0  0  0  0  0
   -2.5280    0.2871    0.0000 N   0  0  0  0  0  0  0  0  0  0  0  0
   -1.0990    1.1120    0.0000 N   0  0  0  0  0  0  0  0  0  0  0  0
   -1.0990    2.7620    0.0000 N   0  0  0  0  0  0  0  0  0  0  0  0
   -3.9570    2.7620    0.0000 N   0  0  0  0  0  0  0  0  0  0  0  0
   -3.9570    1.1120    0.0000 N   0  0  0  0  0  0  0  0  0  0  0  0
   -3.2425    1.5247    0.0000 C   0  0  0  0  0  0  0  0  0  0  0  0
  1  5  3  0  0  0  0
  2  3  1  0  0  0  0
  3  4  1  0  0  0  0
  3  5  1  0  0  0  0
  6  3  1  0  0  0  0
  7  3  1  0  0  0  0
  8  2  3  0  0  0  0
  9  7  3  0  0  0  0
 10  6  3  0  0  0  0
 11  4  3  0  0  0  0
 12 13  3  0  0  0  0
 13  3  1  0  0  0  0
M  CHG  1   3  -4
M  END
$$$$
[67Ga+3]
 OpenBabel07182308452D

  1  0  0  0  0  0  0  0  0  0999 V2000
    3.5161    2.2196    0.0000 Ga  0  1  0  0  0 15  0  0  0  0  0  0
M  ISO  1   1  67
M  CHG  1   1   3
M  END
$$$$
O=C1CC[C@]2(C(=C1)CC[C@@H]1[C@]2(F)[C@@H](O)C[C@]2([C@H]1C[C@@H]1[C@H]2OC(O1)(C)C)C)C
 OpenBabel07182308452D

 30 34  0  0  1  0  0  0  0  0999 V2000
   20.9613  -28.7386    0.0000 C   0  0  0  0  0  0  0  0  0  0  0  0
   20.9613  -29.5636    0.0000 C   0  0  0  0  0  0  0  0  0  0  0  0
   21.6626  -29.9761    0.0000 C   0  0  0  0  0  0  0  0  0  0  0  0
   22.3638  -29.5636    0.0000 C   0  0  0  0  0  0  0  0  0  0  0  0
   22.3638  -28.7386    0.0000 C   0  0  2  0  0  0  0  0  0  0  0  0
   21.6626  -28.3673    0.0000 C   0  0  0  0  0  0  0  0  0  0  0  0
   23.0651  -29.9761    0.0000 C   0  0  0  0  0  0  0  0  0  0  0  0
   23.8076  -29.5636    0.0000 C   0  0  0  0  0  0  0  0  0  0  0  0
   23.8076  -28.7386    0.0000 C   0  0  2  0  0  0  0  0  0  0  0  0
   23.0651  -28.3673    0.0000 C   0  0  2  0  0  0  0  0  0  0  0  0
   24.5088  -28.3673    0.0000 C   0  0  1  0  0  0  0  0  0  0  0  0
   24.5088  -27.5423    0.0000 C   0  0  1  0  0  0  0  0  0  0  0  0
   23.8076  -27.1298    0.0000 C   0  0  0  0  0  0  0  0  0  0  0  0
   23.0651  -27.5423    0.0000 C   0  0  2  0  0  0  0  0  0  0  0  0
   22.3638  -27.9548    0.0000 C   0  0  0  0  0  0  0  0  0  0  0  0
   23.8076  -27.9548    0.0000 H   0  0  0  0  0  0  0  0  0  0  0  0
   22.3638  -27.1298    0.0000 O   0  0  0  0  0  0  0  0  0  0  0  0
   24.5088  -26.7173    0.0000 C   0  0  0  0  0  0  0  0  0  0  0  0
   23.0651  -29.1511    0.0000 F   0  0  0  0  0  0  0  0  0  0  0  0
   24.5088  -29.1511    0.0000 H   0  0  0  0  0  0  0  0  0  0  0  0
   20.2601  -29.9761    0.0000 O   0  0  0  0  0  0  0  0  0  0  0  0
   25.9378  -28.3673    0.0000 C   0  0  0  0  0  0  0  0  0  0  0  0
   25.9378  -27.5423    0.0000 C   0  0  2  0  0  0  0  0  0  0  0  0
   25.2233  -27.1298    0.0000 C   0  0  1  0  0  0  0  0  0  0  0  0
   25.9277  -26.7230    0.0000 O   0  0  0  0  0  0  0  0  0  0  0  0
   26.7189  -27.2367    0.0000 O   0  0  0  0  0  0  0  0  0  0  0  0
   26.7527  -26.7230    0.0000 C   0  0  0  0  0  0  0  0  0  0  0  0
   26.7527  -25.8980    0.0000 C   0  0  0  0  0  0  0  0  0  0  0  0
   27.5777  -26.7230    0.0000 C   0  0  0  0  0  0  0  0  0  0  0  0
   22.3717  -26.1598    0.0000 H   0  0  0  0  0  0  0  0  0  0  0  0
  1  2  1  0  0  0  0
  1  6  1  0  0  0  0
  2  3  1  0  0  0  0
  2 21  2  0  0  0  0
  3  4  2  0  0  0  0
  4  5  1  0  0  0  0
  4  7  1  0  0  0  0
  5  6  1  0  0  0  0
  5 10  1  6  0  0  0
  5 15  1  0  0  0  0
  7  8  1  0  0  0  0
  8  9  1  0  0  0  0
  9 10  1  6  0  0  0
  9 16  1  0  0  0  0
 10 19  1  6  0  0  0
 11  9  1  1  0  0  0
 11 20  1  0  0  0  0
 11 22  1  0  0  0  0
 12 11  1  1  0  0  0
 12 13  1  0  0  0  0
 12 18  1  0  0  0  0
 13 14  1  0  0  0  0
 14 10  1  1  0  0  0
 14 17  1  0  0  0  0
 17 30  1  0  0  0  0
 23 22  1  6  0  0  0
 23 24  1  0  0  0  0
 23 26  1  0  0  0  0
 24 12  1  6  0  0  0
 24 25  1  0  0  0  0
 25 27  1  0  0  0  0
 27 26  1  0  0  0  0
 27 28  1  0  0  0  0
 27 29  1  0  0  0  0
M  END
$$$$
CN1CC[N+](CC1)(C)C
 OpenBabel07182308452D

  9  9  0  0  0  0  0  0  0  0999 V2000
    2.0798    0.5779    0.0000 N   0  3  0  0  0  0  0  0  0  0  0  0
    0.6577   -0.2490    0.0000 N   0  0  0  0  0  0  0  0  0  0  0  0
   -0.0531   -0.6650    0.0000 C   0  0  0  0  0  0  0  0  0  0  0  0
    1.3591    0.9842    0.0000 C   0  0  0  0  0  0  0  0  0  0  0  0
    2.0701   -0.2490    0.0000 C   0  0  0  0  0  0  0  0  0  0  0  0
    0.6481    0.5683    0.0000 C   0  0  0  0  0  0  0  0  0  0  0  0
    1.3687   -0.6554    0.0000 C   0  0  0  0  0  0  0  0  0  0  0  0
    2.8972    0.5779    0.0000 C   0  0  0  0  0  0  0  0  0  0  0  0
    2.4764    1.2889    0.0000 C   0  0  0  0  0  0  0  0  0  0  0  0
  1  5  1  0  0  0  0
  2  3  1  0  0  0  0
  4  6  1  0  0  0  0
  4  1  1  0  0  0  0
  5  7  1  0  0  0  0
  6  2  1  0  0  0  0
  7  2  1  0  0  0  0
  8  1  1  0  0  0  0
  9  1  1  0  0  0  0
M  CHG  1   1   1
M  END
$$$$
Cn1cnc(c1)C
 OpenBabel07182308452D

  7  7  0  0  0  0  0  0  0  0999 V2000
    2.1510   -0.2698    0.0000 C   0  0  0  0  0  0  0  0  0  0  0  0
    2.8654   -0.6823    0.0000 C   0  0  0  0  0  0  0  0  0  0  0  0
    3.6192   -0.3468    0.0000 N   0  0  0  0  0  0  0  0  0  0  0  0
    3.7587   -1.6744    0.0000 N   0  0  0  0  0  0  0  0  0  0  0  0
    4.1712   -0.9598    0.0000 C   0  0  0  0  0  0  0  0  0  0  0  0
    2.9517   -1.5027    0.0000 C   0  0  0  0  0  0  0  0  0  0  0  0
    4.0943   -2.4280    0.0000 C   0  0  0  0  0  0  0  0  0  0  0  0
  1  2  1  0  0  0  0
  2  3  1  0  0  0  0
  5  3  2  0  0  0  0
  5  4  1  0  0  0  0
  6  4  1  0  0  0  0
  6  2  2  0  0  0  0
  7  4  1  0  0  0  0
M  END
$$$$
O=C1CC[C@]2(C(=C1)CC[C@@H]1[C@@H]2CC[C@]2([C@H]1CC[C@H]2O)C)C
 OpenBabel07182308452D

 24 27  0  0  0  0  0  0  0  0999 V2000
   -4.2250   -0.8575    0.0000 C   0  0  0  0  0  0  0  0  0  0  0  0
   -4.2250   -1.6523    0.0000 C   0  0  0  0  0  0  0  0  0  0  0  0
   -3.5138   -2.0288    0.0000 C   0  0  0  0  0  0  0  0  0  0  0  0
   -2.8027   -1.6523    0.0000 C   0  0  0  0  0  0  0  0  0  0  0  0
   -2.8027   -0.8575    0.0000 C   0  0  2  0  0  0  0  0  0  0  0  0
   -3.5138   -0.4392    0.0000 C   0  0  0  0  0  0  0  0  0  0  0  0
   -2.1334   -2.0288    0.0000 C   0  0  0  0  0  0  0  0  0  0  0  0
   -1.3804   -1.6523    0.0000 C   0  0  0  0  0  0  0  0  0  0  0  0
   -1.3804   -0.8575    0.0000 C   0  0  2  0  0  0  0  0  0  0  0  0
   -2.1334   -0.4392    0.0000 C   0  0  2  0  0  0  0  0  0  0  0  0
   -0.6693   -0.4392    0.0000 C   0  0  1  0  0  0  0  0  0  0  0  0
   -0.6693    0.3974    0.0000 C   0  0  1  0  0  0  0  0  0  0  0  0
   -1.3804    0.8157    0.0000 C   0  0  0  0  0  0  0  0  0  0  0  0
   -2.1334    0.3974    0.0000 C   0  0  0  0  0  0  0  0  0  0  0  0
   -4.9361   -2.0288    0.0000 O   0  0  0  0  0  0  0  0  0  0  0  0
   -2.8027   -0.0209    0.0000 C   0  0  0  0  0  0  0  0  0  0  0  0
   -1.3804   -0.0209    0.0000 H   0  0  0  0  0  0  0  0  0  0  0  0
   -0.6693    1.2340    0.0000 C   0  0  0  0  0  0  0  0  0  0  0  0
   -2.1334   -1.2340    0.0000 H   0  0  0  0  0  0  0  0  0  0  0  0
   -0.6693   -1.2340    0.0000 H   0  0  0  0  0  0  0  0  0  0  0  0
    0.7529   -0.4392    0.0000 C   0  0  0  0  0  0  0  0  0  0  0  0
    0.7529    0.3974    0.0000 C   0  0  0  0  0  0  0  0  0  0  0  0
    0.0418    0.8157    0.0000 C   0  0  1  0  0  0  0  0  0  0  0  0
    0.7111    1.2340    0.0000 O   0  0  0  0  0  0  0  0  0  0  0  0
  1  2  1  0  0  0  0
  1  6  1  0  0  0  0
  2  3  1  0  0  0  0
  2 15  2  0  0  0  0
  3  4  2  0  0  0  0
  4  5  1  0  0  0  0
  4  7  1  0  0  0  0
  5  6  1  0  0  0  0
  5 10  1  6  0  0  0
  5 16  1  0  0  0  0
  7  8  1  0  0  0  0
  8  9  1  0  0  0  0
  9 10  1  6  0  0  0
  9 17  1  0  0  0  0
 10 14  1  0  0  0  0
 10 19  1  6  0  0  0
 11  9  1  1  0  0  0
 11 20  1  0  0  0  0
 11 21  1  0  0  0  0
 12 11  1  1  0  0  0
 12 13  1  0  0  0  0
 12 18  1  0  0  0  0
 13 14  1  0  0  0  0
 21 22  1  0  0  0  0
 22 23  1  0  0  0  0
 23 12  1  6  0  0  0
 23 24  1  0  0  0  0
M  END
$$$$
O=C1NCCSSCC(N)C(=O)NC(C(=O)NC(C(=O)NC(C(=O)NC1)C)C)C
 OpenBabel07182308452D

 35 35  0  0  0  0  0  0  0  0999 V2000
   -1.4289   -0.0754    0.0000 S   0  0  0  0  0  0  0  0  0  0  0  0
   -0.7144    0.3371    0.0000 S   0  0  0  0  0  0  0  0  0  0  0  0
   -2.8579   -1.7254    0.0000 O   0  0  0  0  0  0  0  0  0  0  0  0
    0.0000   -3.3754    0.0000 O   0  0  0  0  0  0  0  0  0  0  0  0
   -4.2868   -0.9004    0.0000 O   0  0  0  0  0  0  0  0  0  0  0  0
    2.8579   -2.5504    0.0000 O   0  0  0  0  0  0  0  0  0  0  0  0
    2.2414    0.0678    0.0000 O   0  0  0  0  0  0  0  0  0  0  0  0
   -0.7144   -2.1379    0.0000 N   0  0  0  0  0  0  0  0  0  0  0  0
   -2.8579   -2.5504    0.0000 N   0  0  0  0  0  0  0  0  0  0  0  0
    1.4290   -2.5504    0.0000 N   0  0  0  0  0  0  0  0  0  0  0  0
   -2.8579   -0.9004    0.0000 N   0  0  0  0  0  0  0  0  0  0  0  0
    1.4290   -0.9004    0.0000 N   0  0  0  0  0  0  0  0  0  0  0  0
    0.9967    1.1123    0.0000 N   0  0  0  0  0  0  0  0  0  0  0  0
   -1.4289   -2.5504    0.0000 C   0  0  3  0  0  0  0  0  0  0  0  0
   -3.5724   -2.1379    0.0000 C   0  0  0  0  0  0  0  0  0  0  0  0
   -1.1466   -3.3257    0.0000 C   0  0  0  0  0  0  0  0  0  0  0  0
    0.7145   -2.1379    0.0000 C   0  0  3  0  0  0  0  0  0  0  0  0
    0.5712   -1.3254    0.0000 C   0  0  0  0  0  0  0  0  0  0  0  0
   -2.1433   -2.1379    0.0000 C   0  0  0  0  0  0  0  0  0  0  0  0
    0.0000   -2.5504    0.0000 C   0  0  0  0  0  0  0  0  0  0  0  0
   -3.5724   -1.3129    0.0000 C   0  0  0  0  0  0  0  0  0  0  0  0
    2.1434   -1.3129    0.0000 C   0  0  3  0  0  0  0  0  0  0  0  0
    2.1434   -2.1379    0.0000 C   0  0  0  0  0  0  0  0  0  0  0  0
   -2.8579   -0.0754    0.0000 C   0  0  0  0  0  0  0  0  0  0  0  0
    2.8579   -0.9004    0.0000 C   0  0  0  0  0  0  0  0  0  0  0  0
    0.7145    0.3371    0.0000 C   0  0  3  0  0  0  0  0  0  0  0  0
   -2.1433    0.3371    0.0000 C   0  0  0  0  0  0  0  0  0  0  0  0
    1.4290   -0.0754    0.0000 C   0  0  0  0  0  0  0  0  0  0  0  0
    0.0000   -0.0754    0.0000 C   0  0  0  0  0  0  0  0  0  0  0  0
   -0.2715   -1.8821    0.0000 H   0  0  0  0  0  0  0  0  0  0  0  0
   -2.8579   -3.0619    0.0000 H   0  0  0  0  0  0  0  0  0  0  0  0
    1.4290   -3.0619    0.0000 H   0  0  0  0  0  0  0  0  0  0  0  0
   -2.3464   -0.9004    0.0000 H   0  0  0  0  0  0  0  0  0  0  0  0
    1.1732   -1.3433    0.0000 H   0  0  0  0  0  0  0  0  0  0  0  0
    0.6679    1.5041    0.0000 H   0  0  0  0  0  0  0  0  0  0  0  0
  1  2  1  0  0  0  0
  1 27  1  0  0  0  0
  2 29  1  0  0  0  0
  3 19  2  0  0  0  0
  4 20  2  0  0  0  0
  5 21  2  0  0  0  0
  6 23  2  0  0  0  0
  7 28  2  0  0  0  0
  8 14  1  0  0  0  0
  8 20  1  0  0  0  0
  8 30  1  0  0  0  0
  9 15  1  0  0  0  0
  9 19  1  0  0  0  0
  9 31  1  0  0  0  0
 10 17  1  0  0  0  0
 10 23  1  0  0  0  0
 10 32  1  0  0  0  0
 11 21  1  0  0  0  0
 11 24  1  0  0  0  0
 11 33  1  0  0  0  0
 12 22  1  0  0  0  0
 12 28  1  0  0  0  0
 12 34  1  0  0  0  0
 13 26  1  0  0  0  0
 13 35  1  0  0  0  0
 14 16  1  0  0  0  0
 14 19  1  0  0  0  0
 15 21  1  0  0  0  0
 17 18  1  0  0  0  0
 17 20  1  0  0  0  0
 22 23  1  0  0  0  0
 22 25  1  0  0  0  0
 24 27  1  0  0  0  0
 26 28  1  0  0  0  0
 26 29  1  0  0  0  0
M  END
$$$$
[La+3]
 OpenBabel07182308452D

  1  0  0  0  0  0  0  0  0  0999 V2000
   -0.5500   -1.4290    0.0000 La  0  1  0  0  0 15  0  0  0  0  0  0
M  CHG  1   1   3
M  END
$$$$
N#Cc1cc(N)c(c(c1)N)Cl
 OpenBabel07182308452D

 13 13  0  0  0  0  0  0  0  0999 V2000
    5.6873   -5.4105    0.0000 Cl  0  0  0  0  0  0  0  0  0  0  0  0
    7.1239   -4.5855    0.0000 N   0  0  0  0  0  0  0  0  0  0  0  0
    4.2506   -4.5855    0.0000 N   0  0  0  0  0  0  0  0  0  0  0  0
    5.6873   -1.2571    0.0000 N   0  0  0  0  0  0  0  0  0  0  0  0
    5.6873   -4.5855    0.0000 C   0  0  0  0  0  0  0  0  0  0  0  0
    6.3843   -4.1375    0.0000 C   0  0  0  0  0  0  0  0  0  0  0  0
    4.9903   -4.1375    0.0000 C   0  0  0  0  0  0  0  0  0  0  0  0
    5.6873   -2.9000    0.0000 C   0  0  0  0  0  0  0  0  0  0  0  0
    6.3843   -3.3125    0.0000 C   0  0  0  0  0  0  0  0  0  0  0  0
    4.9903   -3.3125    0.0000 C   0  0  0  0  0  0  0  0  0  0  0  0
    5.6873   -2.0821    0.0000 C   0  0  0  0  0  0  0  0  0  0  0  0
    7.1130   -5.5699    0.0000 H   0  0  0  0  0  0  0  0  0  0  0  0
    4.2593   -5.5700    0.0000 H   0  0  0  0  0  0  0  0  0  0  0  0
  1  5  1  0  0  0  0
  2  6  1  0  0  0  0
  2 12  1  0  0  0  0
  3  7  1  0  0  0  0
  3 13  1  0  0  0  0
  4 11  3  0  0  0  0
  5  6  2  0  0  0  0
  5  7  1  0  0  0  0
  6  9  1  0  0  0  0
  7 10  2  0  0  0  0
  8  9  2  0  0  0  0
  8 10  1  0  0  0  0
  8 11  1  0  0  0  0
M  END
$$$$
Cc1cc(C)c(c(n1)C)O
 OpenBabel07182308452D

 11 11  0  0  0  0  0  0  0  0999 V2000
    0.4953    4.2330    0.0000 C   0  0  0  0  0  0  0  0  0  0  0  0
   -0.0990    1.8305    0.0000 C   0  0  0  0  0  0  0  0  0  0  0  0
    1.2880    1.4872    0.0000 C   0  0  0  0  0  0  0  0  0  0  0  0
   -1.4861    2.1737    0.0000 C   0  0  0  0  0  0  0  0  0  0  0  0
    0.2972    3.4322    0.0000 C   0  0  0  0  0  0  0  0  0  0  0  0
    0.6935    2.0593    0.0000 C   0  0  0  0  0  0  0  0  0  0  0  0
   -0.6935    2.4025    0.0000 C   0  0  0  0  0  0  0  0  0  0  0  0
    0.8917    2.8601    0.0000 C   0  0  0  0  0  0  0  0  0  0  0  0
   -0.4953    3.2033    0.0000 N   0  0  0  0  0  0  0  0  0  0  0  0
    1.6843    3.0889    0.0000 O   0  0  0  0  0  0  0  0  0  0  0  0
    2.3595    2.4392    0.0000 H   0  0  0  0  0  0  0  0  0  0  0  0
  5  1  1  0  0  0  0
  6  2  2  0  0  0  0
  6  3  1  0  0  0  0
  7  2  1  0  0  0  0
  7  4  1  0  0  0  0
  8  5  2  0  0  0  0
  8  6  1  0  0  0  0
  9  5  1  0  0  0  0
  9  7  2  0  0  0  0
 10  8  1  0  0  0  0
 10 11  1  0  0  0  0
M  END
$$$$
C1N2CN3CN1CN(C2)C3
 OpenBabel07182308452D

 10 12  0  0  0  0  0  0  0  0999 V2000
    0.1163   -2.0322    0.0000 C   0  0  0  0  0  0  0  0  0  0  0  0
    0.8517   -0.9111    0.0000 C   0  0  0  0  0  0  0  0  0  0  0  0
    1.5873   -2.0322    0.0000 C   0  0  0  0  0  0  0  0  0  0  0  0
    0.5657   -0.4945    0.0000 C   0  0  0  0  0  0  0  0  0  0  0  0
    1.3012   -1.6156    0.0000 C   0  0  0  0  0  0  0  0  0  0  0  0
    2.0368   -0.4945    0.0000 C   0  0  0  0  0  0  0  0  0  0  0  0
    0.8517   -1.6585    0.0000 N   0  0  3  0  0  0  0  0  0  0  0  0
    0.5657   -1.2419    0.0000 N   0  0  3  0  0  0  0  0  0  0  0  0
    1.3012   -0.1208    0.0000 N   0  0  3  0  0  0  0  0  0  0  0  0
    2.0368   -1.2419    0.0000 N   0  0  3  0  0  0  0  0  0  0  0  0
  7  1  1  0  0  0  0
  7  3  1  0  0  0  0
  7  2  1  0  0  0  0
  8  1  1  0  0  0  0
  8  5  1  0  0  0  0
  8  4  1  0  0  0  0
  9  2  1  0  0  0  0
  9  4  1  0  0  0  0
  9  6  1  0  0  0  0
 10  5  1  0  0  0  0
 10  3  1  0  0  0  0
 10  6  1  0  0  0  0
M  END
$$$$
O=C1CC[C@@]2([C@@]34[C@H]1Oc1c4c(C[C@H]2[N+](CC3)(C)C)ccc1O)O
 OpenBabel07182308452D

 25 29  0  0  0  0  0  0  0  0999 V2000
   -0.4474   -1.5630    0.0000 O   0  0  0  0  0  0  0  0  0  0  0  0
   -2.9843   -0.0278    0.0000 O   0  0  0  0  0  0  0  0  0  0  0  0
   -3.1850   -2.1573    0.0000 O   0  0  0  0  0  0  0  0  0  0  0  0
   -3.1850    2.0102    0.0000 O   0  0  0  0  0  0  0  0  0  0  0  0
    0.4240   -0.8985    0.0000 N   0  3  0  0  0  0  0  0  0  0  0  0
   -1.7194   -0.4860    0.0000 C   0  0  2  0  0  0  0  0  0  0  0  0
   -1.0049   -0.8985    0.0000 C   0  0  1  0  0  0  0  0  0  0  0  0
   -0.2904   -0.4860    0.0000 C   0  0  1  0  0  0  0  0  0  0  0  0
   -1.2427    0.1189    0.0000 C   0  0  0  0  0  0  0  0  0  0  0  0
   -0.0694    0.1189    0.0000 C   0  0  0  0  0  0  0  0  0  0  0  0
   -2.4338   -0.8985    0.0000 C   0  0  2  0  0  0  0  0  0  0  0  0
   -1.7194    0.3389    0.0000 C   0  0  0  0  0  0  0  0  0  0  0  0
    1.2532   -1.1531    0.0000 C   0  0  0  0  0  0  0  0  0  0  0  0
   -0.2904    0.3389    0.0000 C   0  0  0  0  0  0  0  0  0  0  0  0
   -1.0049   -1.7236    0.0000 C   0  0  0  0  0  0  0  0  0  0  0  0
   -1.0049    0.7514    0.0000 C   0  0  0  0  0  0  0  0  0  0  0  0
    0.6181   -1.7440    0.0000 C   0  0  0  0  0  0  0  0  0  0  0  0
   -1.7194   -2.1360    0.0000 C   0  0  0  0  0  0  0  0  0  0  0  0
   -2.4338   -1.7236    0.0000 C   0  0  0  0  0  0  0  0  0  0  0  0
   -2.4338    0.7514    0.0000 C   0  0  0  0  0  0  0  0  0  0  0  0
   -1.0049    1.5764    0.0000 C   0  0  0  0  0  0  0  0  0  0  0  0
   -2.4338    1.5764    0.0000 C   0  0  0  0  0  0  0  0  0  0  0  0
   -1.7194    1.9888    0.0000 C   0  0  0  0  0  0  0  0  0  0  0  0
   -0.7792   -2.4745    0.0000 H   0  0  0  0  0  0  0  0  0  0  0  0
   -3.1849    2.9472    0.0000 H   0  0  0  0  0  0  0  0  0  0  0  0
  1 24  1  0  0  0  0
  2 20  1  0  0  0  0
  3 19  2  0  0  0  0
  4 22  1  0  0  0  0
  4 25  1  0  0  0  0
  5  8  1  0  0  0  0
  5 10  1  0  0  0  0
  5 13  1  0  0  0  0
  5 17  1  0  0  0  0
  6  7  1  6  0  0  0
  6  9  1  0  0  0  0
  6 12  1  0  0  0  0
  7  1  1  1  0  0  0
  7 15  1  0  0  0  0
  8  7  1  1  0  0  0
  8 14  1  0  0  0  0
  9 10  1  0  0  0  0
 11  2  1  0  0  0  0
 11  6  1  6  0  0  0
 11 19  1  0  0  0  0
 12 16  2  0  0  0  0
 12 20  1  0  0  0  0
 14 16  1  0  0  0  0
 15 18  1  0  0  0  0
 16 21  1  0  0  0  0
 18 19  1  0  0  0  0
 20 22  2  0  0  0  0
 21 23  2  0  0  0  0
 22 23  1  0  0  0  0
M  CHG  1   5   1
M  END
$$$$
Oc1ccc(cc1)Cl
 OpenBabel07182308452D

  9  9  0  0  0  0  0  0  0  0999 V2000
    2.1434   -6.1875    0.0000 C   0  0  0  0  0  0  0  0  0  0  0  0
    2.8579   -6.6000    0.0000 C   0  0  0  0  0  0  0  0  0  0  0  0
    2.8579   -7.4250    0.0000 C   0  0  0  0  0  0  0  0  0  0  0  0
    2.1434   -7.8375    0.0000 C   0  0  0  0  0  0  0  0  0  0  0  0
    1.4289   -7.4250    0.0000 C   0  0  0  0  0  0  0  0  0  0  0  0
    1.4289   -6.6000    0.0000 C   0  0  0  0  0  0  0  0  0  0  0  0
    0.7145   -7.8375    0.0000 Cl  0  0  0  0  0  0  0  0  0  0  0  0
    3.5724   -6.1875    0.0000 O   0  0  0  0  0  0  0  0  0  0  0  0
    4.3839   -6.6560    0.0000 H   0  0  0  0  0  0  0  0  0  0  0  0
  1  2  2  0  0  0  0
  1  6  1  0  0  0  0
  2  3  1  0  0  0  0
  2  8  1  0  0  0  0
  3  4  2  0  0  0  0
  4  5  1  0  0  0  0
  5  6  2  0  0  0  0
  5  7  1  0  0  0  0
  8  9  1  0  0  0  0
M  END
$$$$
CN1CCCNCCNCCCNCC1
 OpenBabel07182308452D

 18 18  0  0  0  0  0  0  0  0999 V2000
   -3.5724    0.4125    0.0000 C   0  0  0  0  0  0  0  0  0  0  0  0
   -4.2868    0.8250    0.0000 C   0  0  0  0  0  0  0  0  0  0  0  0
   -4.2868    1.6500    0.0000 N   0  0  0  0  0  0  0  0  0  0  0  0
   -3.5724    2.0625    0.0000 C   0  0  0  0  0  0  0  0  0  0  0  0
   -2.8579    1.6500    0.0000 C   0  0  0  0  0  0  0  0  0  0  0  0
   -2.1434    2.0625    0.0000 N   0  0  0  0  0  0  0  0  0  0  0  0
   -1.4289    1.6500    0.0000 C   0  0  0  0  0  0  0  0  0  0  0  0
   -1.4289    0.8250    0.0000 C   0  0  0  0  0  0  0  0  0  0  0  0
   -0.7145    0.4125    0.0000 C   0  0  0  0  0  0  0  0  0  0  0  0
   -0.7145   -0.4125    0.0000 N   0  0  0  0  0  0  0  0  0  0  0  0
   -1.4289   -0.8250    0.0000 C   0  0  0  0  0  0  0  0  0  0  0  0
   -2.1434   -0.4125    0.0000 C   0  0  0  0  0  0  0  0  0  0  0  0
   -2.8579   -0.8250    0.0000 N   0  0  0  0  0  0  0  0  0  0  0  0
   -3.5724   -0.4125    0.0000 C   0  0  0  0  0  0  0  0  0  0  0  0
    0.0000   -0.8250    0.0000 C   0  0  0  0  0  0  0  0  0  0  0  0
   -5.1702    2.1600    0.0000 H   0  0  0  0  0  0  0  0  0  0  0  0
   -2.1434    3.0825    0.0000 H   0  0  0  0  0  0  0  0  0  0  0  0
   -2.8579   -1.8450    0.0000 H   0  0  0  0  0  0  0  0  0  0  0  0
  1  2  1  0  0  0  0
  1 14  1  0  0  0  0
  2  3  1  0  0  0  0
  3  4  1  0  0  0  0
  3 16  1  0  0  0  0
  4  5  1  0  0  0  0
  5  6  1  0  0  0  0
  6  7  1  0  0  0  0
  6 17  1  0  0  0  0
  7  8  1  0  0  0  0
  8  9  1  0  0  0  0
  9 10  1  0  0  0  0
 10 11  1  0  0  0  0
 10 15  1  0  0  0  0
 11 12  1  0  0  0  0
 12 13  1  0  0  0  0
 13 14  1  0  0  0  0
 13 18  1  0  0  0  0
M  END
$$$$
C1CNCCNCCCNCCNC1
 OpenBabel07182308452D

 17 17  0  0  0  0  0  0  0  0999 V2000
   -0.7145   -4.5375    0.0000 N   0  0  0  0  0  0  0  0  0  0  0  0
    0.0000   -4.9500    0.0000 C   0  0  0  0  0  0  0  0  0  0  0  0
    0.0000   -5.7750    0.0000 C   0  0  0  0  0  0  0  0  0  0  0  0
   -0.7145   -6.1875    0.0000 C   0  0  0  0  0  0  0  0  0  0  0  0
   -1.4289   -5.7750    0.0000 N   0  0  0  0  0  0  0  0  0  0  0  0
   -2.1434   -6.1875    0.0000 C   0  0  0  0  0  0  0  0  0  0  0  0
   -2.8579   -5.7750    0.0000 C   0  0  0  0  0  0  0  0  0  0  0  0
   -2.8579   -4.9500    0.0000 N   0  0  0  0  0  0  0  0  0  0  0  0
   -3.5724   -4.5375    0.0000 C   0  0  0  0  0  0  0  0  0  0  0  0
   -3.5724   -3.7125    0.0000 C   0  0  0  0  0  0  0  0  0  0  0  0
   -2.8579   -3.3000    0.0000 C   0  0  0  0  0  0  0  0  0  0  0  0
   -2.1434   -3.7125    0.0000 N   0  0  0  0  0  0  0  0  0  0  0  0
   -1.4289   -3.3000    0.0000 C   0  0  0  0  0  0  0  0  0  0  0  0
   -0.7145   -3.7125    0.0000 C   0  0  0  0  0  0  0  0  0  0  0  0
   -1.4289   -4.7550    0.0000 H   0  0  0  0  0  0  0  0  0  0  0  0
   -1.9746   -4.4400    0.0000 H   0  0  0  0  0  0  0  0  0  0  0  0
   -2.1434   -4.7325    0.0000 H   0  0  0  0  0  0  0  0  0  0  0  0
  1  2  1  0  0  0  0
  1 14  1  0  0  0  0
  2  3  1  0  0  0  0
  3  4  1  0  0  0  0
  4  5  1  0  0  0  0
  5  6  1  0  0  0  0
  5 15  1  0  0  0  0
  6  7  1  0  0  0  0
  7  8  1  0  0  0  0
  8  9  1  0  0  0  0
  8 16  1  0  0  0  0
  9 10  1  0  0  0  0
 10 11  1  0  0  0  0
 11 12  1  0  0  0  0
 12 13  1  0  0  0  0
 12 17  1  0  0  0  0
 13 14  1  0  0  0  0
M  END
$$$$
C[C@H]1OCC[C@]([C@@H]1O)(C)O
 OpenBabel07182308452D

 12 12  0  0  1  0  0  0  0  0999 V2000
   21.9292  -17.6589    0.0000 C   0  0  0  0  0  0  0  0  0  0  0  0
   21.2033  -17.2711    0.0000 O   0  0  0  0  0  0  0  0  0  0  0  0
   20.5028  -17.7070    0.0000 C   0  0  1  0  0  0  0  0  0  0  0  0
   20.4880  -18.5316    0.0000 C   0  0  2  0  0  0  0  0  0  0  0  0
   21.2560  -18.9193    0.0000 C   0  0  1  0  0  0  0  0  0  0  0  0
   21.9151  -18.4834    0.0000 C   0  0  0  0  0  0  0  0  0  0  0  0
   19.7926  -17.3275    0.0000 C   0  0  0  0  0  0  0  0  0  0  0  0
   20.6726  -19.6264    0.0000 C   0  0  0  0  0  0  0  0  0  0  0  0
   21.8394  -19.6264    0.0000 O   0  0  0  0  0  0  0  0  0  0  0  0
   19.8214  -18.9725    0.0000 O   0  0  0  0  0  0  0  0  0  0  0  0
   21.5001  -20.5351    0.0000 H   0  0  0  0  0  0  0  0  0  0  0  0
   18.9535  -18.5394    0.0000 H   0  0  0  0  0  0  0  0  0  0  0  0
  1  2  1  0  0  0  0
  1  6  1  0  0  0  0
  2  3  1  0  0  0  0
  3  4  1  0  0  0  0
  3  7  1  1  0  0  0
  4  5  1  6  0  0  0
  4 10  1  0  0  0  0
  5  6  1  0  0  0  0
  5  8  1  1  0  0  0
  5  9  1  0  0  0  0
  9 11  1  0  0  0  0
 10 12  1  0  0  0  0
M  END
$$$$
O[C@@H]1[C@H](O)CCO[C@@H]1C
 OpenBabel07182308452D

 10 10  0  0  1  0  0  0  0  0999 V2000
   23.2854  -15.1345    0.0000 C   0  0  0  0  0  0  0  0  0  0  0  0
   22.5669  -14.7506    0.0000 O   0  0  0  0  0  0  0  0  0  0  0  0
   21.8664  -15.1864    0.0000 C   0  0  1  0  0  0  0  0  0  0  0  0
   21.8515  -16.0109    0.0000 C   0  0  1  0  0  0  0  0  0  0  0  0
   22.6119  -16.3948    0.0000 C   0  0  1  0  0  0  0  0  0  0  0  0
   23.2712  -15.9591    0.0000 C   0  0  0  0  0  0  0  0  0  0  0  0
   22.6391  -17.2172    0.0000 O   0  0  0  0  0  0  0  0  0  0  0  0
   21.1562  -14.8069    0.0000 C   0  0  0  0  0  0  0  0  0  0  0  0
   21.1812  -16.4539    0.0000 O   0  0  0  0  0  0  0  0  0  0  0  0
   20.3134  -16.0205    0.0000 H   0  0  0  0  0  0  0  0  0  0  0  0
  1  2  1  0  0  0  0
  1  6  1  0  0  0  0
  2  3  1  0  0  0  0
  3  4  1  0  0  0  0
  3  8  1  1  0  0  0
  4  5  1  0  0  0  0
  4  9  1  1  0  0  0
  5  6  1  0  0  0  0
  5  7  1  1  0  0  0
  9 10  1  0  0  0  0
M  END
$$$$
O[C@H]1CCc2c(C1=O)c(O)c1c(c2)cc(c(c1O)C)O
 OpenBabel07182308452D

 22 24  0  0  1  0  0  0  0  0999 V2000
   21.0289  -10.2048    0.0000 C   0  0  0  0  0  0  0  0  0  0  0  0
   21.0289   -9.3798    0.0000 C   0  0  0  0  0  0  0  0  0  0  0  0
   20.3145   -8.9673    0.0000 O   0  0  0  0  0  0  0  0  0  0  0  0
   21.7435  -10.6173    0.0000 C   0  0  0  0  0  0  0  0  0  0  0  0
   22.4579  -10.2048    0.0000 C   0  0  0  0  0  0  0  0  0  0  0  0
   22.4579   -9.3798    0.0000 C   0  0  0  0  0  0  0  0  0  0  0  0
   21.7435   -8.9673    0.0000 C   0  0  0  0  0  0  0  0  0  0  0  0
   23.1724  -10.6173    0.0000 C   0  0  0  0  0  0  0  0  0  0  0  0
   23.8869  -10.2048    0.0000 C   0  0  0  0  0  0  0  0  0  0  0  0
   23.8869   -9.3798    0.0000 C   0  0  0  0  0  0  0  0  0  0  0  0
   23.1724   -8.9673    0.0000 C   0  0  0  0  0  0  0  0  0  0  0  0
   24.6013  -10.6173    0.0000 C   0  0  0  0  0  0  0  0  0  0  0  0
   25.3158  -10.2048    0.0000 C   0  0  2  0  0  0  0  0  0  0  0  0
   25.3158   -9.3798    0.0000 C   0  0  0  0  0  0  0  0  0  0  0  0
   24.6013   -8.9673    0.0000 C   0  0  0  0  0  0  0  0  0  0  0  0
   25.3571  -12.1848    0.0000 O   0  0  0  0  0  0  0  0  0  0  0  0
   24.6013  -11.4423    0.0000 O   0  0  0  0  0  0  0  0  0  0  0  0
   23.1724  -11.4423    0.0000 O   0  0  0  0  0  0  0  0  0  0  0  0
   21.7435  -11.4421    0.0000 O   0  0  0  0  0  0  0  0  0  0  0  0
   20.3058  -10.6224    0.0000 C   0  0  0  0  0  0  0  0  0  0  0  0
   22.3609  -11.9108    0.0000 H   0  0  0  0  0  0  0  0  0  0  0  0
   20.9320  -11.9106    0.0000 H   0  0  0  0  0  0  0  0  0  0  0  0
  1  2  2  0  0  0  0
  1  4  1  0  0  0  0
  1 20  1  0  0  0  0
  2  3  1  0  0  0  0
  2  7  1  0  0  0  0
  4  5  2  0  0  0  0
  4 19  1  0  0  0  0
  5  6  1  0  0  0  0
  5  8  1  0  0  0  0
  6  7  2  0  0  0  0
  6 11  1  0  0  0  0
  8  9  2  0  0  0  0
  8 18  1  0  0  0  0
  9 10  1  0  0  0  0
  9 12  1  0  0  0  0
 10 11  2  0  0  0  0
 10 15  1  0  0  0  0
 12 13  1  0  0  0  0
 12 17  2  0  0  0  0
 13 14  1  0  0  0  0
 13 16  1  6  0  0  0
 14 15  1  0  0  0  0
 18 21  1  0  0  0  0
 19 22  1  0  0  0  0
M  END
$$$$
Cc1cnc2c(n1)c(N)nc(n2)N
 OpenBabel07182308452D

 17 18  0  0  1  0  0  0  0  0999 V2000
   -5.7158   -7.4250    0.0000 C   0  0  0  0  0  0  0  0  0  0  0  0
   -6.4302   -7.8375    0.0000 C   0  0  0  0  0  0  0  0  0  0  0  0
   -7.1447   -7.4250    0.0000 N   0  0  0  0  0  0  0  0  0  0  0  0
   -7.8592   -7.8375    0.0000 C   0  0  0  0  0  0  0  0  0  0  0  0
   -7.8592   -8.6625    0.0000 C   0  0  0  0  0  0  0  0  0  0  0  0
   -7.1447   -9.0750    0.0000 N   0  0  0  0  0  0  0  0  0  0  0  0
   -6.4302   -8.6625    0.0000 C   0  0  0  0  0  0  0  0  0  0  0  0
   -8.5737   -9.0750    0.0000 N   0  0  0  0  0  0  0  0  0  0  0  0
   -9.2881   -8.6625    0.0000 C   0  0  0  0  0  0  0  0  0  0  0  0
   -9.2881   -7.8375    0.0000 N   0  0  0  0  0  0  0  0  0  0  0  0
   -8.5737   -7.4250    0.0000 C   0  0  0  0  0  0  0  0  0  0  0  0
   -8.5737   -6.6000    0.0000 N   0  0  0  0  0  0  0  0  0  0  0  0
  -10.0026   -9.0750    0.0000 N   0  0  0  0  0  0  0  0  0  0  0  0
   -7.7211   -6.1077    0.0000 H   0  0  0  0  0  0  0  0  0  0  0  0
   -9.4263   -6.1078    0.0000 H   0  0  0  0  0  0  0  0  0  0  0  0
  -10.8552   -8.5827    0.0000 H   0  0  0  0  0  0  0  0  0  0  0  0
  -10.0026  -10.0595    0.0000 H   0  0  0  0  0  0  0  0  0  0  0  0
  1  2  1  0  0  0  0
  2  3  1  0  0  0  0
  2  7  2  0  0  0  0
  3  4  2  0  0  0  0
  4  5  1  0  0  0  0
  4 11  1  0  0  0  0
  5  6  2  0  0  0  0
  5  8  1  0  0  0  0
  6  7  1  0  0  0  0
  8  9  2  0  0  0  0
  9 10  1  0  0  0  0
  9 13  1  0  0  0  0
 10 11  2  0  0  0  0
 11 12  1  0  0  0  0
 12 14  1  0  0  0  0
 12 15  1  0  0  0  0
 13 16  1  0  0  0  0
 13 17  1  0  0  0  0
M  END
$$$$
Sc1cccc[n+]1[O-]
 OpenBabel07182308452D

  9  9  0  0  0  0  0  0  0  0999 V2000
    0.3550   -0.4109    0.0000 N   0  3  0  0  0  0  0  0  0  0  0  0
    0.3646    0.4109    0.0000 C   0  0  0  0  0  0  0  0  0  0  0  0
    1.0796   -0.8340    0.0000 O   0  5  0  0  0  0  0  0  0  0  0  0
    1.0698    0.8145    0.0000 S   0  0  0  0  0  0  0  0  0  0  0  0
   -0.3744   -0.8194    0.0000 C   0  0  0  0  0  0  0  0  0  0  0  0
   -0.3598    0.8340    0.0000 C   0  0  0  0  0  0  0  0  0  0  0  0
   -1.0796   -0.3963    0.0000 C   0  0  0  0  0  0  0  0  0  0  0  0
   -1.0796    0.4255    0.0000 C   0  0  0  0  0  0  0  0  0  0  0  0
    2.2450    0.1301    0.0000 H   0  0  0  0  0  0  0  0  0  0  0  0
  2  1  2  0  0  0  0
  3  1  1  0  0  0  0
  4  2  1  0  0  0  0
  4  9  1  0  0  0  0
  5  1  1  0  0  0  0
  6  2  1  0  0  0  0
  6  8  2  0  0  0  0
  7  5  2  0  0  0  0
  8  7  1  0  0  0  0
M  CHG  2   1   1   3  -1
M  END
$$$$
Cc1ccc([nH]1)C
 OpenBabel07182308452D

  7  7  0  0  0  0  0  0  0  0999 V2000
    2.9159   -0.6030    0.0000 N   0  0  0  0  0  0  0  0  0  0  0  0
    2.1089   -0.4314    0.0000 C   0  0  0  0  0  0  0  0  0  0  0  0
    3.3284    0.1113    0.0000 C   0  0  0  0  0  0  0  0  0  0  0  0
    2.0227    0.3890    0.0000 C   0  0  0  0  0  0  0  0  0  0  0  0
    1.4958   -0.9835    0.0000 C   0  0  0  0  0  0  0  0  0  0  0  0
    2.7764    0.7244    0.0000 C   0  0  0  0  0  0  0  0  0  0  0  0
    4.1489    0.1976    0.0000 C   0  0  0  0  0  0  0  0  0  0  0  0
  1  2  1  0  0  0  0
  1  3  1  0  0  0  0
  2  4  2  0  0  0  0
  2  5  1  0  0  0  0
  3  6  2  0  0  0  0
  3  7  1  0  0  0  0
  4  6  1  0  0  0  0
M  END
$$$$
C[n+]1cccc2c1cccc2
 OpenBabel07182308452D

 11 12  0  0  0  0  0  0  0  0999 V2000
   -0.1206    0.8014    0.0000 C   0  0  0  0  0  0  0  0  0  0  0  0
   -0.8351    0.3890    0.0000 N   0  3  0  0  0  0  0  0  0  0  0  0
   -0.1206    1.6265    0.0000 C   0  0  0  0  0  0  0  0  0  0  0  0
   -1.5495    0.8014    0.0000 C   0  0  0  0  0  0  0  0  0  0  0  0
   -0.8351   -0.4360    0.0000 C   0  0  0  0  0  0  0  0  0  0  0  0
   -0.8351    2.0390    0.0000 C   0  0  0  0  0  0  0  0  0  0  0  0
   -1.5495    1.6265    0.0000 C   0  0  0  0  0  0  0  0  0  0  0  0
   -2.2640    0.3890    0.0000 C   0  0  0  0  0  0  0  0  0  0  0  0
   -2.2640    2.0390    0.0000 C   0  0  0  0  0  0  0  0  0  0  0  0
   -2.9785    0.8014    0.0000 C   0  0  0  0  0  0  0  0  0  0  0  0
   -2.9785    1.6265    0.0000 C   0  0  0  0  0  0  0  0  0  0  0  0
  1  2  2  0  0  0  0
  1  3  1  0  0  0  0
  2  4  1  0  0  0  0
  2  5  1  0  0  0  0
  3  6  2  0  0  0  0
  4  7  2  0  0  0  0
  4  8  1  0  0  0  0
  6  7  1  0  0  0  0
  7  9  1  0  0  0  0
  8 10  2  0  0  0  0
  9 11  2  0  0  0  0
 10 11  1  0  0  0  0
M  CHG  1   2   1
M  END
$$$$
Cn1cncc(c1=O)O
 OpenBabel07182308452D

 10 10  0  0  0  0  0  0  0  0999 V2000
   -3.5724   -2.8875    0.0000 C   0  0  0  0  0  0  0  0  0  0  0  0
   -2.8579   -2.4749    0.0000 N   0  0  0  0  0  0  0  0  0  0  0  0
   -2.8579   -1.6500    0.0000 C   0  0  0  0  0  0  0  0  0  0  0  0
   -3.5724   -1.2374    0.0000 O   0  0  0  0  0  0  0  0  0  0  0  0
   -2.1434   -1.2374    0.0000 C   0  0  0  0  0  0  0  0  0  0  0  0
   -2.1434   -0.4125    0.0000 O   0  0  0  0  0  0  0  0  0  0  0  0
   -1.4289   -1.6500    0.0000 C   0  0  0  0  0  0  0  0  0  0  0  0
   -1.4289   -2.4749    0.0000 N   0  0  0  0  0  0  0  0  0  0  0  0
   -2.1434   -2.8875    0.0000 C   0  0  0  0  0  0  0  0  0  0  0  0
   -1.3319    0.0560    0.0000 H   0  0  0  0  0  0  0  0  0  0  0  0
  1  2  1  0  0  0  0
  2  3  1  0  0  0  0
  2  9  1  0  0  0  0
  3  4  2  0  0  0  0
  3  5  1  0  0  0  0
  5  6  1  0  0  0  0
  5  7  2  0  0  0  0
  6 10  1  0  0  0  0
  7  8  1  0  0  0  0
  8  9  2  0  0  0  0
M  END
$$$$
Cc1nnco1
 OpenBabel07182308452D

  6  6  0  0  0  0  0  0  0  0999 V2000
   -2.8579   -5.7750    0.0000 C   0  0  0  0  0  0  0  0  0  0  0  0
   -2.1904   -6.2599    0.0000 N   0  0  0  0  0  0  0  0  0  0  0  0
   -2.4453   -7.0445    0.0000 N   0  0  0  0  0  0  0  0  0  0  0  0
   -3.2704   -7.0445    0.0000 C   0  0  0  0  0  0  0  0  0  0  0  0
   -3.7553   -7.7120    0.0000 C   0  0  0  0  0  0  0  0  0  0  0  0
   -3.5253   -6.2599    0.0000 O   0  0  0  0  0  0  0  0  0  0  0  0
  1  2  2  0  0  0  0
  1  6  1  0  0  0  0
  2  3  1  0  0  0  0
  3  4  2  0  0  0  0
  4  5  1  0  0  0  0
  4  6  1  0  0  0  0
M  END
$$$$
O[C@H]1CCNC(=N)N1
 OpenBabel07182308452D

 13 13  0  0  0  0  0  0  0  0999 V2000
    8.4772  -13.1404    0.0000 C   0  0  0  0  0  0  0  0  0  0  0  0
    7.7636  -13.5549    0.0000 C   0  0  0  0  0  0  0  0  0  0  0  0
    9.1943  -13.5477    0.0000 N   0  0  0  0  0  0  0  0  0  0  0  0
    7.7636  -14.3767    0.0000 C   0  0  1  0  0  0  0  0  0  0  0  0
    9.1943  -14.3731    0.0000 C   0  0  0  0  0  0  0  0  0  0  0  0
    8.4772  -14.7875    0.0000 N   0  0  0  0  0  0  0  0  0  0  0  0
    7.0499  -14.7912    0.0000 O   0  0  0  0  0  0  0  0  0  0  0  0
    9.9080  -14.7875    0.0000 N   0  0  0  0  0  0  0  0  0  0  0  0
    7.6770  -12.9278    0.0000 H   0  0  0  0  0  0  0  0  0  0  0  0
   10.0452  -13.0524    0.0000 H   0  0  0  0  0  0  0  0  0  0  0  0
    8.4780  -15.7720    0.0000 H   0  0  0  0  0  0  0  0  0  0  0  0
    6.2086  -14.3084    0.0000 H   0  0  0  0  0  0  0  0  0  0  0  0
    9.9056  -15.7720    0.0000 H   0  0  0  0  0  0  0  0  0  0  0  0
  1  2  1  0  0  0  0
  1  3  1  0  0  0  0
  1  9  1  0  0  0  0
  2  4  1  0  0  0  0
  3  5  1  0  0  0  0
  3 10  1  0  0  0  0
  4  6  1  0  0  0  0
  4  7  1  1  0  0  0
  5  8  2  0  0  0  0
  5  6  1  0  0  0  0
  6 11  1  0  0  0  0
  7 12  1  0  0  0  0
  8 13  1  0  0  0  0
M  END
$$$$
N/C=C/1\NC(=O)CNC(=O)CNC(=O)[C@H](CNC(=O)CNC1=O)N
 OpenBabel07182308452D

 32 32  0  0  0  0  0  0  0  0999 V2000
    8.4772  -12.3150    0.0000 C   0  0  0  0  0  0  0  0  0  0  0  0
    9.1943  -11.9042    0.0000 N   0  0  0  0  0  0  0  0  0  0  0  0
    7.7636  -11.9078    0.0000 C   0  0  0  0  0  0  0  0  0  0  0  0
    9.9044  -12.3115    0.0000 C   0  0  0  0  0  0  0  0  0  0  0  0
    7.0499  -12.3187    0.0000 N   0  0  0  0  0  0  0  0  0  0  0  0
    7.7239  -11.3131    0.0000 O   0  0  0  0  0  0  0  0  0  0  0  0
   10.6216  -11.9006    0.0000 C   0  0  0  0  0  0  0  0  0  0  0  0
    9.9009  -13.1369    0.0000 O   0  0  0  0  0  0  0  0  0  0  0  0
    6.3399  -11.9078    0.0000 C   0  0  0  0  0  0  0  0  0  0  0  0
   10.6216  -11.0788    0.0000 N   0  0  0  0  0  0  0  0  0  0  0  0
   11.3316  -12.3079    0.0000 C   0  0  0  0  0  0  0  0  0  0  0  0
    6.3399  -11.0896    0.0000 C   0  0  1  0  0  0  0  0  0  0  0  0
    9.9044  -10.6679    0.0000 C   0  0  0  0  0  0  0  0  0  0  0  0
   12.0489  -11.8970    0.0000 N   0  0  0  0  0  0  0  0  0  0  0  0
    7.0607  -10.6788    0.0000 C   0  0  0  0  0  0  0  0  0  0  0  0
    5.6335  -10.6860    0.0000 N   0  0  0  0  0  0  0  0  0  0  0  0
    9.9044   -9.8534    0.0000 C   0  0  0  0  0  0  0  0  0  0  0  0
    9.1872  -11.0788    0.0000 O   0  0  0  0  0  0  0  0  0  0  0  0
    7.0571   -9.8571    0.0000 N   0  0  0  0  0  0  0  0  0  0  0  0
    7.6086  -10.8626    0.0000 O   0  0  0  0  0  0  0  0  0  0  0  0
    9.1943   -9.4390    0.0000 N   0  0  0  0  0  0  0  0  0  0  0  0
    7.7636   -9.4426    0.0000 C   0  0  0  0  0  0  0  0  0  0  0  0
    8.4772   -9.8534    0.0000 C   0  0  0  0  0  0  0  0  0  0  0  0
    8.4736  -10.6788    0.0000 O   0  0  0  0  0  0  0  0  0  0  0  0
    9.0647  -12.9026    0.0000 H   0  0  0  0  0  0  0  0  0  0  0  0
    9.1946  -10.9197    0.0000 H   0  0  0  0  0  0  0  0  0  0  0  0
    7.0488  -13.3032    0.0000 H   0  0  0  0  0  0  0  0  0  0  0  0
   11.4734  -10.5851    0.0000 H   0  0  0  0  0  0  0  0  0  0  0  0
   12.0491  -10.9125    0.0000 H   0  0  0  0  0  0  0  0  0  0  0  0
    5.6318   -9.7015    0.0000 H   0  0  0  0  0  0  0  0  0  0  0  0
    6.2017   -9.3697    0.0000 H   0  0  0  0  0  0  0  0  0  0  0  0
    9.1964   -8.4545    0.0000 H   0  0  0  0  0  0  0  0  0  0  0  0
  1  2  1  0  0  0  0
  1  3  1  0  0  0  0
  1 25  1  0  0  0  0
  2  4  1  0  0  0  0
  2 26  1  0  0  0  0
  3  5  1  0  0  0  0
  3  6  2  0  0  0  0
  4  7  1  0  0  0  0
  4  8  2  0  0  0  0
  5  9  1  0  0  0  0
  5 27  1  0  0  0  0
  7 10  1  0  0  0  0
  7 11  2  0  0  0  0
  9 12  1  0  0  0  0
 10 13  1  0  0  0  0
 10 28  1  0  0  0  0
 11 14  1  0  0  0  0
 12 15  1  0  0  0  0
 12 16  1  6  0  0  0
 13 17  1  0  0  0  0
 13 18  2  0  0  0  0
 14 29  1  0  0  0  0
 15 19  1  0  0  0  0
 15 20  2  0  0  0  0
 16 30  1  0  0  0  0
 17 21  1  0  0  0  0
 19 22  1  0  0  0  0
 19 31  1  0  0  0  0
 21 23  1  0  0  0  0
 21 32  1  0  0  0  0
 22 23  1  0  0  0  0
 23 24  2  0  0  0  0
M  END
$$$$
O=c1ccoc2c1cccc2
 OpenBabel07182308452D

 11 12  0  0  0  0  0  0  0  0999 V2000
   28.6022  -19.1936    0.0000 O   0  0  0  0  0  0  0  0  0  0  0  0
   28.6022  -21.6684    0.0000 O   0  0  0  0  0  0  0  0  0  0  0  0
   27.8878  -19.6060    0.0000 C   0  0  0  0  0  0  0  0  0  0  0  0
   29.3165  -19.6060    0.0000 C   0  0  0  0  0  0  0  0  0  0  0  0
   28.6022  -20.8435    0.0000 C   0  0  0  0  0  0  0  0  0  0  0  0
   29.3165  -20.4310    0.0000 C   0  0  0  0  0  0  0  0  0  0  0  0
   27.8878  -20.4310    0.0000 C   0  0  0  0  0  0  0  0  0  0  0  0
   30.0541  -19.1650    0.0000 C   0  0  0  0  0  0  0  0  0  0  0  0
   30.0541  -20.8721    0.0000 C   0  0  0  0  0  0  0  0  0  0  0  0
   30.8014  -19.5889    0.0000 C   0  0  0  0  0  0  0  0  0  0  0  0
   30.8014  -20.4481    0.0000 C   0  0  0  0  0  0  0  0  0  0  0  0
  1  3  1  0  0  0  0
  1  4  1  0  0  0  0
  2  5  2  0  0  0  0
  3  7  2  0  0  0  0
  4  6  1  0  0  0  0
  4  8  2  0  0  0  0
  5  6  1  0  0  0  0
  5  7  1  0  0  0  0
  6  9  2  0  0  0  0
  8 10  1  0  0  0  0
  9 11  1  0  0  0  0
 10 11  2  0  0  0  0
M  END
$$$$
O=S1(=O)CCCCN1
 OpenBabel07182308452D

  8  8  0  0  0  0  0  0  0  0999 V2000
   -1.0663   -0.3215    0.0000 N   0  0  0  0  0  0  0  0  0  0  0  0
   -1.4733    0.3947    0.0000 S   0  0  0  0  0  0  0  0  0  0  0  0
   -1.4733   -1.0378    0.0000 C   0  0  0  0  0  0  0  0  0  0  0  0
   -2.3010    0.3947    0.0000 C   0  0  0  0  0  0  0  0  0  0  0  0
   -1.8369    1.0623    0.0000 O   0  0  0  0  0  0  0  0  0  0  0  0
   -0.9713    1.0432    0.0000 O   0  0  0  0  0  0  0  0  0  0  0  0
   -2.3010   -1.0378    0.0000 C   0  0  0  0  0  0  0  0  0  0  0  0
   -2.7106   -0.3215    0.0000 C   0  0  0  0  0  0  0  0  0  0  0  0
  1  2  1  0  0  0  0
  1  3  1  0  0  0  0
  2  4  1  0  0  0  0
  2  5  2  0  0  0  0
  2  6  2  0  0  0  0
  3  7  1  0  0  0  0
  4  8  1  0  0  0  0
  7  8  1  0  0  0  0
M  END
$$$$
Oc1cccc(c1)Cl
 OpenBabel07182308452D

  9  9  0  0  0  0  0  0  0  0999 V2000
    4.5292   -1.1750    0.0000 C   0  0  0  0  0  0  0  0  0  0  0  0
    5.2375   -0.7542    0.0000 C   0  0  0  0  0  0  0  0  0  0  0  0
    5.9542   -1.1625    0.0000 C   0  0  0  0  0  0  0  0  0  0  0  0
    4.5292   -2.0000    0.0000 C   0  0  0  0  0  0  0  0  0  0  0  0
    5.9625   -1.9917    0.0000 C   0  0  0  0  0  0  0  0  0  0  0  0
    5.2291    0.0625    0.0000 O   0  0  0  0  0  0  0  0  0  0  0  0
    5.2417   -2.4042    0.0000 C   0  0  0  0  0  0  0  0  0  0  0  0
    6.6792   -2.4042    0.0000 Cl  0  0  0  0  0  0  0  0  0  0  0  0
    6.0357    0.5393    0.0000 H   0  0  0  0  0  0  0  0  0  0  0  0
  2  1  1  0  0  0  0
  3  2  2  0  0  0  0
  3  5  1  0  0  0  0
  4  1  2  0  0  0  0
  5  7  2  0  0  0  0
  6  2  1  0  0  0  0
  6  9  1  0  0  0  0
  7  4  1  0  0  0  0
  8  5  1  0  0  0  0
M  END
$$$$
CC1=Cc2c(C1)cccc2
 OpenBabel07182308452D

 10 11  0  0  0  0  0  0  0  0999 V2000
   11.6738  -11.0137    0.0000 C   0  0  0  0  0  0  0  0  0  0  0  0
   11.6738  -11.8387    0.0000 C   0  0  0  0  0  0  0  0  0  0  0  0
   12.3750  -12.2512    0.0000 C   0  0  0  0  0  0  0  0  0  0  0  0
   12.3750  -10.6012    0.0000 C   0  0  0  0  0  0  0  0  0  0  0  0
   13.1175  -11.0137    0.0000 C   0  0  0  0  0  0  0  0  0  0  0  0
   13.1175  -11.8387    0.0000 C   0  0  0  0  0  0  0  0  0  0  0  0
   13.9013  -12.1275    0.0000 C   0  0  0  0  0  0  0  0  0  0  0  0
   14.3550  -11.4262    0.0000 C   0  0  0  0  0  0  0  0  0  0  0  0
   13.9013  -10.7662    0.0000 C   0  0  0  0  0  0  0  0  0  0  0  0
   15.1800  -11.4262    0.0000 C   0  0  0  0  0  0  0  0  0  0  0  0
  1  2  2  0  0  0  0
  2  3  1  0  0  0  0
  3  6  2  0  0  0  0
  4  1  1  0  0  0  0
  5  6  1  0  0  0  0
  5  4  2  0  0  0  0
  6  7  1  0  0  0  0
  7  8  1  0  0  0  0
  8  9  2  0  0  0  0
  8 10  1  0  0  0  0
  9  5  1  0  0  0  0
M  END
$$$$
O=C1N(C)C(=O)[C@@H]2[C@H]1[C@H]1CC[C@@H]2C1
 OpenBabel07182308452D

 15 17  0  0  0  0  0  0  0  0999 V2000
   -1.4521    2.6190    0.0000 C   0  0  0  0  0  0  0  0  0  0  0  0
   -0.6272    2.6190    0.0000 C   0  0  0  0  0  0  0  0  0  0  0  0
   -0.2149    1.8767    0.0000 C   0  0  2  0  0  0  0  0  0  0  0  0
   -0.6272    1.1342    0.0000 C   0  0  2  0  0  0  0  0  0  0  0  0
   -1.4521    1.1342    0.0000 C   0  0  2  0  0  0  0  0  0  0  0  0
   -1.8647    1.8354    0.0000 C   0  0  1  0  0  0  0  0  0  0  0  0
   -0.3798    0.3919    0.0000 C   0  0  0  0  0  0  0  0  0  0  0  0
   -0.9985   -0.1442    0.0000 N   0  0  0  0  0  0  0  0  0  0  0  0
   -1.6996    0.3506    0.0000 C   0  0  0  0  0  0  0  0  0  0  0  0
   -2.4833    0.1444    0.0000 O   0  0  0  0  0  0  0  0  0  0  0  0
    0.4037    0.1444    0.0000 O   0  0  0  0  0  0  0  0  0  0  0  0
   -1.0811    1.6291    0.0000 C   0  0  0  0  0  0  0  0  0  0  0  0
   -2.2358    1.1342    0.0000 H   0  0  0  0  0  0  0  0  0  0  0  0
    0.1975    1.1755    0.0000 H   0  0  0  0  0  0  0  0  0  0  0  0
   -0.9985   -0.9279    0.0000 C   0  0  0  0  0  0  0  0  0  0  0  0
  1  2  1  0  0  0  0
  1  6  1  0  0  0  0
  2  3  1  0  0  0  0
  3  4  1  6  0  0  0
  3 12  1  0  0  0  0
  4  5  1  6  0  0  0
  4 14  1  0  0  0  0
  4  7  1  0  0  0  0
  5  9  1  0  0  0  0
  5 13  1  6  0  0  0
  6  5  1  6  0  0  0
  6 12  1  0  0  0  0
  7  8  1  0  0  0  0
  7 11  2  0  0  0  0
  8  9  1  0  0  0  0
  8 15  1  0  0  0  0
  9 10  2  0  0  0  0
M  END
$$$$
Sc1nc(N)c2c(n1)[nH]nn2
 OpenBabel07182308452D

 12 13  0  0  0  0  0  0  0  0999 V2000
   -1.0924    0.4461    0.0000 N   0  0  0  0  0  0  0  0  0  0  0  0
   -0.4441    0.0100    0.0000 C   0  0  0  0  0  0  0  0  0  0  0  0
   -0.7211    1.2711    0.0000 N   0  0  0  0  0  0  0  0  0  0  0  0
    0.2688    0.4049    0.0000 C   0  0  0  0  0  0  0  0  0  0  0  0
   -0.4732   -0.9151    0.0000 N   0  0  0  0  0  0  0  0  0  0  0  0
    0.1451    1.1474    0.0000 N   0  0  0  0  0  0  0  0  0  0  0  0
    0.9701   -0.0076    0.0000 C   0  0  0  0  0  0  0  0  0  0  0  0
    0.2275   -1.3276    0.0000 C   0  0  0  0  0  0  0  0  0  0  0  0
    0.9698   -0.8738    0.0000 N   0  0  0  0  0  0  0  0  0  0  0  0
    1.7126    0.4049    0.0000 N   0  0  0  0  0  0  0  0  0  0  0  0
    0.2280   -2.1115    0.0000 S   0  0  0  0  0  0  0  0  0  0  0  0
    1.7207    1.3894    0.0000 H   0  0  0  0  0  0  0  0  0  0  0  0
  1  2  1  0  0  0  0
  1  3  1  0  0  0  0
  2  4  2  0  0  0  0
  2  5  1  0  0  0  0
  3  6  2  0  0  0  0
  4  7  1  0  0  0  0
  4  6  1  0  0  0  0
  5  8  2  0  0  0  0
  7  9  2  0  0  0  0
  7 10  1  0  0  0  0
  8  9  1  0  0  0  0
  8 11  1  0  0  0  0
 10 12  1  0  0  0  0
M  END
$$$$
O[C@H]1[C@@H](O)CC[C@@H]1O
 OpenBabel07182308452D

 10 10  0  0  0  0  0  0  0  0999 V2000
   -1.8349    0.1986    0.0000 C   0  0  0  0  0  0  0  0  0  0  0  0
   -2.4949    0.6937    0.0000 C   0  0  0  0  0  0  0  0  0  0  0  0
   -2.0824   -0.5439    0.0000 C   0  0  1  0  0  0  0  0  0  0  0  0
   -3.1549    0.2399    0.0000 C   0  0  1  0  0  0  0  0  0  0  0  0
   -2.9075   -0.5439    0.0000 C   0  0  1  0  0  0  0  0  0  0  0  0
   -1.6286   -1.2039    0.0000 O   0  0  0  0  0  0  0  0  0  0  0  0
   -3.9388    0.4874    0.0000 O   0  0  0  0  0  0  0  0  0  0  0  0
   -3.1549   -1.2864    0.0000 O   0  0  0  0  0  0  0  0  0  0  0  0
   -2.0460   -2.0795    0.0000 H   0  0  0  0  0  0  0  0  0  0  0  0
   -4.1052   -1.4810    0.0000 H   0  0  0  0  0  0  0  0  0  0  0  0
  1  2  1  0  0  0  0
  1  3  1  0  0  0  0
  2  4  1  0  0  0  0
  3  5  1  0  0  0  0
  3  6  1  6  0  0  0
  4  7  1  1  0  0  0
  4  5  1  0  0  0  0
  5  8  1  6  0  0  0
  6  9  1  0  0  0  0
  8 10  1  0  0  0  0
M  END
$$$$
Fc1ccccc1F
 OpenBabel07182308452D

  8  8  0  0  0  0  0  0  0  0999 V2000
    3.9742    0.4426    0.0000 C   0  0  0  0  0  0  0  0  0  0  0  0
    3.9635    1.2864    0.0000 C   0  0  0  0  0  0  0  0  0  0  0  0
    4.6726    1.7080    0.0000 C   0  0  0  0  0  0  0  0  0  0  0  0
    5.3919    1.3045    0.0000 C   0  0  0  0  0  0  0  0  0  0  0  0
    5.4031    0.4607    0.0000 C   0  0  0  0  0  0  0  0  0  0  0  0
    4.6937    0.0391    0.0000 C   0  0  0  0  0  0  0  0  0  0  0  0
    4.6624    2.5239    0.0000 F   0  0  0  0  0  0  0  0  0  0  0  0
    6.0822    1.7144    0.0000 F   0  0  0  0  0  0  0  0  0  0  0  0
  1  2  2  0  0  0  0
  1  6  1  0  0  0  0
  2  3  1  0  0  0  0
  3  4  2  0  0  0  0
  3  7  1  0  0  0  0
  4  5  1  0  0  0  0
  4  8  1  0  0  0  0
  5  6  2  0  0  0  0
M  END
$$$$
O[C@@H]1OC[C@H](C([C@H]1N)O)O
 OpenBabel07182308452D

 12 12  0  0  1  0  0  0  0  0999 V2000
   17.5301   -5.5000    0.0000 O   0  0  0  0  0  0  0  0  0  0  0  0
   16.8157   -6.7375    0.0000 O   0  0  0  0  0  0  0  0  0  0  0  0
   14.6722   -5.5000    0.0000 O   0  0  0  0  0  0  0  0  0  0  0  0
   14.6722   -7.1500    0.0000 O   0  0  0  0  0  0  0  0  0  0  0  0
   16.1012   -4.6750    0.0000 N   0  0  0  0  0  0  0  0  0  0  0  0
   15.3867   -5.9125    0.0000 C   0  0  3  0  0  0  0  0  0  0  0  0
   16.1012   -5.5000    0.0000 C   0  0  2  0  0  0  0  0  0  0  0  0
   16.8157   -5.9125    0.0000 C   0  0  2  0  0  0  0  0  0  0  0  0
   15.3867   -6.7375    0.0000 C   0  0  1  0  0  0  0  0  0  0  0  0
   16.1012   -7.1500    0.0000 C   0  0  0  0  0  0  0  0  0  0  0  0
   13.8322   -6.6650    0.0000 H   0  0  0  0  0  0  0  0  0  0  0  0
   15.2486   -4.1827    0.0000 H   0  0  0  0  0  0  0  0  0  0  0  0
  2  8  1  0  0  0  0
  2 10  1  0  0  0  0
  3  6  1  0  0  0  0
  4 11  1  0  0  0  0
  5 12  1  0  0  0  0
  6  7  1  0  0  0  0
  6  9  1  0  0  0  0
  7  5  1  1  0  0  0
  7  8  1  0  0  0  0
  8  1  1  6  0  0  0
  9  4  1  1  0  0  0
  9 10  1  0  0  0  0
M  END
$$$$
O[C@H]1COCC[C@@H]1O
 OpenBabel07182308452D

 10 10  0  0  1  0  0  0  0  0999 V2000
   19.6736   -5.9125    0.0000 O   0  0  0  0  0  0  0  0  0  0  0  0
   17.5301   -7.1500    0.0000 O   0  0  0  0  0  0  0  0  0  0  0  0
   18.9591   -7.9750    0.0000 O   0  0  0  0  0  0  0  0  0  0  0  0
   18.2447   -5.9125    0.0000 C   0  0  0  0  0  0  0  0  0  0  0  0
   18.2447   -6.7375    0.0000 C   0  0  1  0  0  0  0  0  0  0  0  0
   18.9591   -7.1500    0.0000 C   0  0  2  0  0  0  0  0  0  0  0  0
   19.6736   -6.7375    0.0000 C   0  0  0  0  0  0  0  0  0  0  0  0
   18.9591   -5.5000    0.0000 C   0  0  0  0  0  0  0  0  0  0  0  0
   16.6901   -6.6649    0.0000 H   0  0  0  0  0  0  0  0  0  0  0  0
   18.1191   -8.4600    0.0000 H   0  0  0  0  0  0  0  0  0  0  0  0
  1  7  1  0  0  0  0
  1  8  1  0  0  0  0
  2  9  1  0  0  0  0
  3 10  1  0  0  0  0
  4  5  1  0  0  0  0
  4  8  1  0  0  0  0
  5  2  1  1  0  0  0
  5  6  1  0  0  0  0
  6  3  1  6  0  0  0
  6  7  1  0  0  0  0
M  END
$$$$
CC(F)F
 OpenBabel07182308452D

  4  3  0  0  0  0  0  0  0  0999 V2000
   -0.8678    0.0451    0.0000 C   0  0  0  0  0  0  0  0  0  0  0  0
   -0.1535    0.4209    0.0000 C   0  0  0  0  0  0  0  0  0  0  0  0
   -1.4512   -0.5382    0.0000 F   0  0  0  0  0  0  0  0  0  0  0  0
   -0.2844   -0.5382    0.0000 F   0  0  0  0  0  0  0  0  0  0  0  0
  1  2  1  0  0  0  0
  1  3  1  0  0  0  0
  1  4  1  0  0  0  0
M  END
$$$$
O=c1onc[nH]1
 OpenBabel07182308452D

  7  7  0  0  0  0  0  0  0  0999 V2000
    2.0038    1.7377    0.0000 C   0  0  0  0  0  0  0  0  0  0  0  0
    1.8931    2.5309    0.0000 N   0  0  0  0  0  0  0  0  0  0  0  0
    1.2658    1.3687    0.0000 N   0  0  0  0  0  0  0  0  0  0  0  0
    1.0813    2.6600    0.0000 C   0  0  0  0  0  0  0  0  0  0  0  0
    0.7124    1.9221    0.0000 O   0  0  0  0  0  0  0  0  0  0  0  0
    0.7309    3.4348    0.0000 O   0  0  0  0  0  0  0  0  0  0  0  0
    2.5958    3.2204    0.0000 H   0  0  0  0  0  0  0  0  0  0  0  0
  1  2  1  0  0  0  0
  1  3  2  0  0  0  0
  2  4  1  0  0  0  0
  2  7  1  0  0  0  0
  3  5  1  0  0  0  0
  4  5  1  0  0  0  0
  4  6  2  0  0  0  0
M  END
$$$$
Cc1oc(=O)oc1C
 OpenBabel07182308452D

  8  8  0  0  0  0  0  0  0  0999 V2000
   -2.2686    0.2835    0.0000 C   0  0  0  0  0  0  0  0  0  0  0  0
   -2.9698    0.6960    0.0000 C   0  0  0  0  0  0  0  0  0  0  0  0
   -3.7418    0.4589    0.0000 C   0  0  0  0  0  0  0  0  0  0  0  0
   -4.2075    1.1189    0.0000 O   0  0  0  0  0  0  0  0  0  0  0  0
   -3.7238    1.7657    0.0000 C   0  0  0  0  0  0  0  0  0  0  0  0
   -2.9592    1.5053    0.0000 O   0  0  0  0  0  0  0  0  0  0  0  0
   -4.0079   -0.3197    0.0000 C   0  0  0  0  0  0  0  0  0  0  0  0
   -3.9723    2.5683    0.0000 O   0  0  0  0  0  0  0  0  0  0  0  0
  1  2  1  0  0  0  0
  2  3  2  0  0  0  0
  2  6  1  0  0  0  0
  3  4  1  0  0  0  0
  3  7  1  0  0  0  0
  4  5  1  0  0  0  0
  5  6  1  0  0  0  0
  5  8  2  0  0  0  0
M  END
$$$$
C[C@H]1CCCCO1
 OpenBabel07182308452D

 12 12  0  0  0  0  0  0  0  0999 V2000
   -3.4217   -3.2170    0.0000 C   0  0  0  0  0  0  0  0  0  0  0  0
   -3.3004   -2.4010    0.0000 C   0  0  1  0  0  0  0  0  0  0  0  0
   -2.5331   -2.0980    0.0000 C   0  0  0  0  0  0  0  0  0  0  0  0
   -2.4117   -1.2820    0.0000 C   0  0  0  0  0  0  0  0  0  0  0  0
   -3.0578   -0.7689    0.0000 C   0  0  0  0  0  0  0  0  0  0  0  0
   -3.8252   -1.0719    0.0000 C   0  0  0  0  0  0  0  0  0  0  0  0
   -3.9465   -1.8879    0.0000 O   0  0  0  0  0  0  0  0  0  0  0  0
   -2.5179   -2.6622    0.0000 H   0  0  0  0  0  0  0  0  0  0  0  0
   -2.3680   -2.9063    0.0000 H   0  0  0  0  0  0  0  0  0  0  0  0
   -1.7657   -1.7951    0.0000 H   0  0  0  0  0  0  0  0  0  0  0  0
   -2.2904   -0.4660    0.0000 H   0  0  0  0  0  0  0  0  0  0  0  0
   -3.7038   -0.2558    0.0000 H   0  0  0  0  0  0  0  0  0  0  0  0
  2  1  1  0  0  0  0
  2  8  1  1  0  0  0
  3  2  1  0  0  0  0
  3  9  1  0  0  0  0
  4  3  1  0  0  0  0
  4 10  1  0  0  0  0
  5  4  1  0  0  0  0
  5 11  1  0  0  0  0
  6  5  1  0  0  0  0
  6 12  1  0  0  0  0
  7  2  1  0  0  0  0
  7  6  1  0  0  0  0
M  END
$$$$
O[C@@H]1C[C@@H]2[C@@H](C1)[C@@H]1C=C3[C@H]([C@@H]1C=C2C)CC(=O)OCCCC[C@@H]([C@H](C3=O)C)O
 OpenBabel07182308452D

 37 40  0  0  0  0  0  0  0  0999 V2000
   -6.4781   -3.1251    0.0000 C   0  0  0  0  0  0  0  0  0  0  0  0
  -10.1006   -1.1195    0.0000 C   0  0  0  0  0  0  0  0  0  0  0  0
  -11.5282   -1.0582    0.0000 C   0  0  0  0  0  0  0  0  0  0  0  0
  -10.8321   -1.5010    0.0000 C   0  0  0  0  0  0  0  0  0  0  0  0
  -11.4929   -0.2340    0.0000 C   0  0  0  0  0  0  0  0  0  0  0  0
   -7.5970   -2.2364    0.0000 C   0  0  0  0  0  0  0  0  0  0  0  0
   -5.4445   -1.6606    0.0000 C   0  0  0  0  0  0  0  0  0  0  0  0
   -5.9347   -0.4190    0.0000 C   0  0  0  0  0  0  0  0  0  0  0  0
   -7.8428   -0.1354    0.0000 C   0  0  0  0  0  0  0  0  0  0  0  0
   -9.4045   -1.5622    0.0000 C   0  0  0  0  0  0  0  0  0  0  0  0
   -6.7810   -2.3577    0.0000 C   0  0  0  0  0  0  0  0  0  0  0  0
  -10.0653   -0.2952    0.0000 C   0  0  2  0  0  0  0  0  0  0  0  0
  -10.8674   -2.3252    0.0000 C   0  0  0  0  0  0  0  0  0  0  0  0
   -5.2386   -0.8618    0.0000 C   0  0  2  0  0  0  0  0  0  0  0  0
   -6.2679   -1.7116    0.0000 C   0  0  1  0  0  0  0  0  0  0  0  0
   -7.9000   -1.4690    0.0000 C   0  0  2  0  0  0  0  0  0  0  0  0
   -6.5709   -0.9443    0.0000 C   0  0  2  0  0  0  0  0  0  0  0  0
   -7.3869   -0.8230    0.0000 C   0  0  2  0  0  0  0  0  0  0  0  0
   -8.6730   -1.1807    0.0000 C   0  0  1  0  0  0  0  0  0  0  0  0
   -8.6376   -0.3565    0.0000 C   0  0  0  0  0  0  0  0  0  0  0  0
  -10.7614    0.1474    0.0000 C   0  0  1  0  0  0  0  0  0  0  0  0
   -9.4398   -2.3865    0.0000 C   0  0  0  0  0  0  0  0  0  0  0  0
   -9.3338    0.0862    0.0000 C   0  0  0  0  0  0  0  0  0  0  0  0
   -8.7437   -2.8292    0.0000 O   0  0  0  0  0  0  0  0  0  0  0  0
   -9.2984    0.9104    0.0000 O   0  0  0  0  0  0  0  0  0  0  0  0
  -10.1713   -2.7680    0.0000 O   0  0  0  0  0  0  0  0  0  0  0  0
   -4.4712   -0.5588    0.0000 O   0  0  0  0  0  0  0  0  0  0  0  0
  -10.7260    0.9716    0.0000 O   0  0  0  0  0  0  0  0  0  0  0  0
  -10.7967   -0.6767    0.0000 H   0  0  0  0  0  0  0  0  0  0  0  0
  -11.5636   -1.8825    0.0000 H   0  0  0  0  0  0  0  0  0  0  0  0
   -4.6203   -1.4079    0.0000 H   0  0  0  0  0  0  0  0  0  0  0  0
   -5.8864   -2.4431    0.0000 H   0  0  0  0  0  0  0  0  0  0  0  0
   -8.2415   -2.2200    0.0000 H   0  0  0  0  0  0  0  0  0  0  0  0
   -7.0505   -0.2730    0.0000 H   0  0  0  0  0  0  0  0  0  0  0  0
   -7.2090   -0.0174    0.0000 H   0  0  0  0  0  0  0  0  0  0  0  0
   -8.9067   -1.9719    0.0000 H   0  0  0  0  0  0  0  0  0  0  0  0
  -11.5670    0.3253    0.0000 H   0  0  0  0  0  0  0  0  0  0  0  0
  4  3  1  0  0  0  0
  5  3  1  0  0  0  0
 11  1  1  0  0  0  0
 11  6  2  0  0  0  0
 12  2  1  0  0  0  0
 12 21  1  6  0  0  0
 12 29  1  0  0  0  0
 13  4  1  0  0  0  0
 13 30  1  0  0  0  0
 14  7  1  0  0  0  0
 14  8  1  0  0  0  0
 14 27  1  0  0  0  0
 14 31  1  1  0  0  0
 15  7  1  0  0  0  0
 15 11  1  0  0  0  0
 15 17  1  6  0  0  0
 15 32  1  0  0  0  0
 16  6  1  0  0  0  0
 16 18  1  6  0  0  0
 16 33  1  0  0  0  0
 17  8  1  0  0  0  0
 17 18  1  6  0  0  0
 17 34  1  0  0  0  0
 18  9  1  0  0  0  0
 18 35  1  6  0  0  0
 19 10  1  0  0  0  0
 19 16  1  6  0  0  0
 19 36  1  0  0  0  0
 20  9  2  0  0  0  0
 20 19  1  0  0  0  0
 21  5  1  0  0  0  0
 21 28  1  0  0  0  0
 21 37  1  1  0  0  0
 22 10  1  0  0  0  0
 23 12  1  0  0  0  0
 23 20  1  0  0  0  0
 24 22  2  0  0  0  0
 25 23  2  0  0  0  0
 26 13  1  0  0  0  0
 26 22  1  0  0  0  0
M  END
$$$$
O[C@H]1C[C@@H]2[C@@H](C1)C=C[C@@H]1[C@H]2C=C2[C@H]1CC(=O)OCCCC[C@@H]([C@H](C2=O)C)O
 OpenBabel07182308452D

 36 39  0  0  0  0  0  0  0  0999 V2000
    5.2610   -1.1553    0.0000 C   0  0  0  0  0  0  0  0  0  0  0  0
    3.8334   -1.0940    0.0000 C   0  0  0  0  0  0  0  0  0  0  0  0
    4.5295   -1.5368    0.0000 C   0  0  0  0  0  0  0  0  0  0  0  0
    3.8687   -0.2698    0.0000 C   0  0  0  0  0  0  0  0  0  0  0  0
    8.5806   -2.3935    0.0000 C   0  0  0  0  0  0  0  0  0  0  0  0
    7.7646   -2.2722    0.0000 C   0  0  0  0  0  0  0  0  0  0  0  0
    9.9172   -1.6964    0.0000 C   0  0  0  0  0  0  0  0  0  0  0  0
    9.4270   -0.4548    0.0000 C   0  0  0  0  0  0  0  0  0  0  0  0
    7.5188   -0.1712    0.0000 C   0  0  0  0  0  0  0  0  0  0  0  0
    5.9572   -1.5980    0.0000 C   0  0  0  0  0  0  0  0  0  0  0  0
    5.2964   -0.3310    0.0000 C   0  0  2  0  0  0  0  0  0  0  0  0
    9.0937   -1.7474    0.0000 C   0  0  2  0  0  0  0  0  0  0  0  0
    4.4942   -2.3610    0.0000 C   0  0  0  0  0  0  0  0  0  0  0  0
   10.1231   -0.8976    0.0000 C   0  0  2  0  0  0  0  0  0  0  0  0
    7.4616   -1.5048    0.0000 C   0  0  2  0  0  0  0  0  0  0  0  0
    8.7908   -0.9801    0.0000 C   0  0  2  0  0  0  0  0  0  0  0  0
    7.9747   -0.8588    0.0000 C   0  0  2  0  0  0  0  0  0  0  0  0
    6.6887   -1.2165    0.0000 C   0  0  1  0  0  0  0  0  0  0  0  0
    6.7240   -0.3923    0.0000 C   0  0  0  0  0  0  0  0  0  0  0  0
    4.6002    0.1116    0.0000 C   0  0  1  0  0  0  0  0  0  0  0  0
    5.9218   -2.4222    0.0000 C   0  0  0  0  0  0  0  0  0  0  0  0
    6.0279    0.0504    0.0000 C   0  0  0  0  0  0  0  0  0  0  0  0
    6.6180   -2.8650    0.0000 O   0  0  0  0  0  0  0  0  0  0  0  0
    6.0632    0.8746    0.0000 O   0  0  0  0  0  0  0  0  0  0  0  0
    5.1903   -2.8038    0.0000 O   0  0  0  0  0  0  0  0  0  0  0  0
   10.8904   -0.5946    0.0000 O   0  0  0  0  0  0  0  0  0  0  0  0
    4.6356    0.9358    0.0000 O   0  0  0  0  0  0  0  0  0  0  0  0
    4.5649   -0.7125    0.0000 H   0  0  0  0  0  0  0  0  0  0  0  0
    9.4752   -2.4789    0.0000 H   0  0  0  0  0  0  0  0  0  0  0  0
    3.7981   -1.9183    0.0000 H   0  0  0  0  0  0  0  0  0  0  0  0
   10.7414   -1.4437    0.0000 H   0  0  0  0  0  0  0  0  0  0  0  0
    7.1201   -2.2558    0.0000 H   0  0  0  0  0  0  0  0  0  0  0  0
    8.3111   -0.3088    0.0000 H   0  0  0  0  0  0  0  0  0  0  0  0
    8.1527   -0.0532    0.0000 H   0  0  0  0  0  0  0  0  0  0  0  0
    6.4550   -2.0077    0.0000 H   0  0  0  0  0  0  0  0  0  0  0  0
    3.7947    0.2895    0.0000 H   0  0  0  0  0  0  0  0  0  0  0  0
  3  2  1  0  0  0  0
  4  2  1  0  0  0  0
  6  5  2  0  0  0  0
 11  1  1  0  0  0  0
 11 20  1  6  0  0  0
 11 28  1  0  0  0  0
 12  5  1  0  0  0  0
 12  7  1  0  0  0  0
 12 16  1  6  0  0  0
 12 29  1  0  0  0  0
 13  3  1  0  0  0  0
 13 30  1  0  0  0  0
 14  7  1  0  0  0  0
 14  8  1  0  0  0  0
 14 26  1  0  0  0  0
 14 31  1  1  0  0  0
 15  6  1  0  0  0  0
 15 17  1  6  0  0  0
 15 32  1  0  0  0  0
 16  8  1  0  0  0  0
 16 17  1  6  0  0  0
 16 33  1  0  0  0  0
 17  9  1  0  0  0  0
 17 34  1  6  0  0  0
 18 10  1  0  0  0  0
 18 15  1  6  0  0  0
 18 35  1  0  0  0  0
 19  9  2  0  0  0  0
 19 18  1  0  0  0  0
 20  4  1  0  0  0  0
 20 27  1  0  0  0  0
 20 36  1  1  0  0  0
 21 10  1  0  0  0  0
 22 11  1  0  0  0  0
 22 19  1  0  0  0  0
 23 21  2  0  0  0  0
 24 22  2  0  0  0  0
 25 13  1  0  0  0  0
 25 21  1  0  0  0  0
M  END
$$$$
CN1[C@@H]2CCC[C@H]1CC2
 OpenBabel07182308452D

 11 12  0  0  0  0  0  0  0  0999 V2000
    0.1690   -1.5392    0.0000 C   0  0  0  0  0  0  0  0  0  0  0  0
    0.9939   -1.5392    0.0000 C   0  0  0  0  0  0  0  0  0  0  0  0
    1.3247   -0.0899    0.0000 C   0  0  0  0  0  0  0  0  0  0  0  0
    0.5752   -1.0929    0.0000 N   0  0  0  0  0  0  0  0  0  0  0  0
    0.5815    0.2680    0.0000 C   0  0  0  0  0  0  0  0  0  0  0  0
   -0.1617   -0.0899    0.0000 C   0  0  0  0  0  0  0  0  0  0  0  0
   -0.3453   -0.8941    0.0000 C   0  0  1  0  0  0  0  0  0  0  0  0
   -1.1422   -1.1077    0.0000 H   0  0  0  0  0  0  0  0  0  0  0  0
    1.5083   -0.8941    0.0000 C   0  0  1  0  0  0  0  0  0  0  0  0
    2.3052   -1.1077    0.0000 H   0  0  0  0  0  0  0  0  0  0  0  0
    0.5752   -1.9179    0.0000 C   0  0  0  0  0  0  0  0  0  0  0  0
  1  2  1  0  0  0  0
  2  9  1  0  0  0  0
  3  5  1  0  0  0  0
  4 11  1  0  0  0  0
  5  6  1  0  0  0  0
  6  7  1  0  0  0  0
  7  1  1  0  0  0  0
  7  4  1  0  0  0  0
  7  8  1  1  0  0  0
  9  3  1  0  0  0  0
  9  4  1  0  0  0  0
  9 10  1  1  0  0  0
M  END
$$$$
CCF
 OpenBabel07182308452D

  3  2  0  0  0  0  0  0  0  0999 V2000
   -0.1392   -2.3304    0.0000 C   0  0  0  0  0  0  0  0  0  0  0  0
   -0.1392   -3.1554    0.0000 C   0  0  0  0  0  0  0  0  0  0  0  0
   -0.8536   -3.5680    0.0000 F   0  0  0  0  0  0  0  0  0  0  0  0
  1  2  1  0  0  0  0
  2  3  1  0  0  0  0
M  END
$$$$
[123I]c1ccccc1
 OpenBabel07182308452D

  7  7  0  0  0  0  0  0  0  0999 V2000
    0.5815    2.7430    0.0000 C   0  0  0  0  0  0  0  0  0  0  0  0
   -0.1328    2.3305    0.0000 C   0  0  0  0  0  0  0  0  0  0  0  0
   -0.1328    1.5055    0.0000 C   0  0  0  0  0  0  0  0  0  0  0  0
    0.5815    1.0930    0.0000 C   0  0  0  0  0  0  0  0  0  0  0  0
    1.2960    1.5055    0.0000 C   0  0  0  0  0  0  0  0  0  0  0  0
    1.2960    2.3305    0.0000 C   0  0  0  0  0  0  0  0  0  0  0  0
    0.5815    3.5680    0.0000 I   0  0  0  0  0  0  0  0  0  0  0  0
  1  2  2  0  0  0  0
  1  6  1  0  0  0  0
  1  7  1  0  0  0  0
  2  3  1  0  0  0  0
  3  4  2  0  0  0  0
  4  5  1  0  0  0  0
  5  6  2  0  0  0  0
M  ISO  1   7 123
M  END
$$$$
Cn1ccc(=O)c(c1C)O
 OpenBabel07182308452D

 11 11  0  0  0  0  0  0  0  0999 V2000
    5.6100   -2.9150    0.0000 N   0  0  0  0  0  0  0  0  0  0  0  0
    4.8955   -2.5025    0.0000 C   0  0  0  0  0  0  0  0  0  0  0  0
    4.8955   -1.6775    0.0000 C   0  0  0  0  0  0  0  0  0  0  0  0
    6.3245   -2.5025    0.0000 C   0  0  0  0  0  0  0  0  0  0  0  0
    6.3245   -1.6775    0.0000 C   0  0  0  0  0  0  0  0  0  0  0  0
    5.6100   -1.2650    0.0000 C   0  0  0  0  0  0  0  0  0  0  0  0
    5.6100   -0.4400    0.0000 O   0  0  0  0  0  0  0  0  0  0  0  0
    7.0389   -1.2650    0.0000 O   0  0  0  0  0  0  0  0  0  0  0  0
    7.0389   -2.9150    0.0000 C   0  0  0  0  0  0  0  0  0  0  0  0
    5.6100   -3.7400    0.0000 C   0  0  0  0  0  0  0  0  0  0  0  0
    7.8504   -1.7335    0.0000 H   0  0  0  0  0  0  0  0  0  0  0  0
  1  2  1  0  0  0  0
  1  4  1  0  0  0  0
  1 10  1  0  0  0  0
  2  3  2  0  0  0  0
  4  5  2  0  0  0  0
  4  9  1  0  0  0  0
  5  6  1  0  0  0  0
  5  8  1  0  0  0  0
  6  3  1  0  0  0  0
  6  7  2  0  0  0  0
  8 11  1  0  0  0  0
M  END
$$$$
Clc1ccc(c(c1)Cl)F
 OpenBabel07182308452D

  9  9  0  0  0  0  0  0  0  0999 V2000
    0.3641    4.0632    0.0000 Cl  0  0  0  0  0  0  0  0  0  0  0  0
    1.0785    3.6507    0.0000 C   0  0  0  0  0  0  0  0  0  0  0  0
    1.7930    4.0632    0.0000 C   0  0  0  0  0  0  0  0  0  0  0  0
    2.5075    3.6507    0.0000 C   0  0  0  0  0  0  0  0  0  0  0  0
    2.5075    2.8257    0.0000 C   0  0  0  0  0  0  0  0  0  0  0  0
    3.2220    2.4132    0.0000 F   0  0  0  0  0  0  0  0  0  0  0  0
    1.0785    2.8257    0.0000 C   0  0  0  0  0  0  0  0  0  0  0  0
    1.7930    2.4132    0.0000 C   0  0  0  0  0  0  0  0  0  0  0  0
    1.7930    1.5882    0.0000 Cl  0  0  0  0  0  0  0  0  0  0  0  0
  1  2  1  0  0  0  0
  2  3  1  0  0  0  0
  2  7  2  0  0  0  0
  3  4  2  0  0  0  0
  4  5  1  0  0  0  0
  5  6  1  0  0  0  0
  5  8  2  0  0  0  0
  7  8  1  0  0  0  0
  8  9  1  0  0  0  0
M  END
$$$$
Nc1ccccn1
 OpenBabel07182308452D

  9  9  0  0  0  0  0  0  0  0999 V2000
   -0.3504    1.1757    0.0000 C   0  0  0  0  0  0  0  0  0  0  0  0
   -0.3504    0.3507    0.0000 C   0  0  0  0  0  0  0  0  0  0  0  0
   -1.0649    1.5882    0.0000 C   0  0  0  0  0  0  0  0  0  0  0  0
   -1.0649    2.4132    0.0000 N   0  0  0  0  0  0  0  0  0  0  0  0
   -1.7793    1.1757    0.0000 N   0  0  0  0  0  0  0  0  0  0  0  0
   -1.7793    0.3507    0.0000 C   0  0  0  0  0  0  0  0  0  0  0  0
   -1.0649   -0.0618    0.0000 C   0  0  0  0  0  0  0  0  0  0  0  0
   -0.2123    2.9055    0.0000 H   0  0  0  0  0  0  0  0  0  0  0  0
   -1.9175    2.9054    0.0000 H   0  0  0  0  0  0  0  0  0  0  0  0
  1  2  2  0  0  0  0
  1  3  1  0  0  0  0
  2  7  1  0  0  0  0
  3  4  1  0  0  0  0
  3  5  2  0  0  0  0
  4  8  1  0  0  0  0
  4  9  1  0  0  0  0
  5  6  1  0  0  0  0
  6  7  2  0  0  0  0
M  END
$$$$
O=C1CCC2=C3CC[C@]4([C@H]([C@@H]3CCC2=C1)CC[C@H]4O)C
 OpenBabel07182308452D

 21 24  0  0  1  0  0  0  0  0999 V2000
    0.9248   -2.6188    0.0000 C   0  0  2  0  0  0  0  0  0  0  0  0
    0.6955   -3.4113    0.0000 C   0  0  0  0  0  0  0  0  0  0  0  0
    1.3783   -3.8743    0.0000 C   0  0  0  0  0  0  0  0  0  0  0  0
    2.0297   -3.3680    0.0000 C   0  0  2  0  0  0  0  0  0  0  0  0
    1.7494   -2.5920    0.0000 C   0  0  2  0  0  0  0  0  0  0  0  0
    2.2812   -1.9613    0.0000 C   0  0  0  0  0  0  0  0  0  0  0  0
    3.0933   -2.1065    0.0000 C   0  0  0  0  0  0  0  0  0  0  0  0
    3.3736   -2.8825    0.0000 C   0  0  0  0  0  0  0  0  0  0  0  0
    4.1857   -3.0277    0.0000 C   0  0  0  0  0  0  0  0  0  0  0  0
    4.7175   -2.3970    0.0000 C   0  0  0  0  0  0  0  0  0  0  0  0
    5.5297   -2.5422    0.0000 C   0  0  0  0  0  0  0  0  0  0  0  0
    5.8100   -3.3181    0.0000 C   0  0  0  0  0  0  0  0  0  0  0  0
    6.6221   -3.4633    0.0000 O   0  0  0  0  0  0  0  0  0  0  0  0
    5.2781   -3.9488    0.0000 C   0  0  0  0  0  0  0  0  0  0  0  0
    4.4660   -3.8036    0.0000 C   0  0  0  0  0  0  0  0  0  0  0  0
    3.9342   -4.4343    0.0000 C   0  0  0  0  0  0  0  0  0  0  0  0
    3.1221   -4.2891    0.0000 C   0  0  0  0  0  0  0  0  0  0  0  0
    2.8418   -3.5132    0.0000 C   0  0  1  0  0  0  0  0  0  0  0  0
    1.3895   -1.8497    0.0000 C   0  0  0  0  0  0  0  0  0  0  0  0
    0.9843   -1.7960    0.0000 O   0  0  0  0  0  0  0  0  0  0  0  0
    1.8571   -1.3729    0.0000 H   0  0  0  0  0  0  0  0  0  0  0  0
  1  2  1  0  0  0  0
  1  5  1  1  0  0  0
  1 20  1  0  0  0  0
  2  3  1  0  0  0  0
  4  3  1  0  0  0  0
  4  5  1  6  0  0  0
  4 18  1  0  0  0  0
  5  6  1  0  0  0  0
  5 19  1  6  0  0  0
  6  7  1  0  0  0  0
  7  8  1  0  0  0  0
  8  9  2  0  0  0  0
  8 18  1  0  0  0  0
  9 10  1  0  0  0  0
  9 15  1  0  0  0  0
 10 11  1  0  0  0  0
 11 12  1  0  0  0  0
 12 13  2  0  0  0  0
 12 14  1  0  0  0  0
 14 15  2  0  0  0  0
 15 16  1  0  0  0  0
 16 17  1  0  0  0  0
 18 17  1  1  0  0  0
 20 21  1  0  0  0  0
M  END
$$$$
C[C@H]1O[C@@H]2[C@@H](C1)CC(=O)C[C@H]1CC[C@H]3[C@H](O1)[C@@H]1O[C@@]4(CC[C@@H]5O[C@@H](CC[C@@H]6O[C@H](C2)C(=C)[C@@H](C6)C)C(=C)C5)C[C@H]2O[C@@H]1[C@@H](O3)[C@H]2O4
 OpenBabel07182308452D

 59 67  0  0  0  0  0  0  0  0999 V2000
   -0.9475    1.4731    0.0000 C   0  0  2  0  0  0  0  0  0  0  0  0
   -0.9475    2.2880    0.0000 C   0  0  2  0  0  0  0  0  0  0  0  0
   -0.2183    2.7169    0.0000 C   0  0  0  0  0  0  0  0  0  0  0  0
    0.4678    2.2880    0.0000 C   0  0  0  0  0  0  0  0  0  0  0  0
    1.1970    2.7169    0.0000 C   0  0  0  0  0  0  0  0  0  0  0  0
    1.8832    2.2880    0.0000 C   0  0  1  0  0  0  0  0  0  0  0  0
    2.6123    2.7169    0.0000 C   0  0  0  0  0  0  0  0  0  0  0  0
    3.2986    2.2880    0.0000 C   0  0  0  0  0  0  0  0  0  0  0  0
    3.2986    1.4731    0.0000 C   0  0  1  0  0  0  0  0  0  0  0  0
    2.5694    1.0442    0.0000 C   0  0  1  0  0  0  0  0  0  0  0  0
    2.5694    0.2293    0.0000 C   0  0  1  0  0  0  0  0  0  0  0  0
    3.2986   -0.1994    0.0000 C   0  0  1  0  0  0  0  0  0  0  0  0
    4.0276    0.2293    0.0000 C   0  0  1  0  0  0  0  0  0  0  0  0
    4.0276    1.0442    0.0000 O   0  0  0  0  0  0  0  0  0  0  0  0
    1.8403   -0.1994    0.0000 O   0  0  0  0  0  0  0  0  0  0  0  0
    1.8403   -1.0573    0.0000 C   0  0  2  0  0  0  0  0  0  0  0  0
    2.5694   -1.4432    0.0000 C   0  0  0  0  0  0  0  0  0  0  0  0
    3.2986   -1.0573    0.0000 O   0  0  0  0  0  0  0  0  0  0  0  0
    3.8132   -1.4432    0.0000 C   0  0  1  0  0  0  0  0  0  0  0  0
    4.7568   -0.1994    0.0000 C   0  0  2  0  0  0  0  0  0  0  0  0
    1.1111   -1.4432    0.0000 C   0  0  0  0  0  0  0  0  0  0  0  0
    1.1111   -2.3011    0.0000 C   0  0  0  0  0  0  0  0  0  0  0  0
    0.4249   -2.6871    0.0000 C   0  0  1  0  0  0  0  0  0  0  0  0
    0.4249   -3.5449    0.0000 C   0  0  0  0  0  0  0  0  0  0  0  0
   -0.3040   -2.3011    0.0000 O   0  0  0  0  0  0  0  0  0  0  0  0
   -1.0333   -2.7300    0.0000 C   0  0  1  0  0  0  0  0  0  0  0  0
   -1.7623   -2.3011    0.0000 C   0  0  0  0  0  0  0  0  0  0  0  0
   -1.0333   -3.5449    0.0000 C   0  0  0  0  0  0  0  0  0  0  0  0
   -1.7623   -1.4432    0.0000 C   0  0  0  0  0  0  0  0  0  0  0  0
   -1.0333   -1.0573    0.0000 C   0  0  2  0  0  0  0  0  0  0  0  0
   -1.0333   -0.1994    0.0000 O   0  0  0  0  0  0  0  0  0  0  0  0
   -0.3470   -1.4432    0.0000 C   0  0  0  0  0  0  0  0  0  0  0  0
    0.3821   -1.0573    0.0000 C   0  0  2  0  0  0  0  0  0  0  0  0
    0.3821   -0.1994    0.0000 C   0  0  0  0  0  0  0  0  0  0  0  0
   -0.3040    0.2293    0.0000 C   0  0  1  0  0  0  0  0  0  0  0  0
   -0.3040    1.0442    0.0000 C   0  0  0  0  0  0  0  0  0  0  0  0
    1.0254    0.2293    0.0000 C   0  0  0  0  0  0  0  0  0  0  0  0
   -0.9475    3.1029    0.0000 H   0  0  0  0  0  0  0  0  0  0  0  0
   -0.9475    0.6153    0.0000 H   0  0  0  0  0  0  0  0  0  0  0  0
    0.4678    1.4731    0.0000 O   0  0  0  0  0  0  0  0  0  0  0  0
    1.8832    3.1457    0.0000 H   0  0  0  0  0  0  0  0  0  0  0  0
    1.8832    1.4731    0.0000 O   0  0  0  0  0  0  0  0  0  0  0  0
    4.0276    1.9019    0.0000 H   0  0  0  0  0  0  0  0  0  0  0  0
    2.5694   -0.6284    0.0000 O   0  0  0  0  0  0  0  0  0  0  0  0
    2.5694    1.8591    0.0000 H   0  0  0  0  0  0  0  0  0  0  0  0
    1.8403    0.6153    0.0000 H   0  0  0  0  0  0  0  0  0  0  0  0
    3.2986    0.6153    0.0000 H   0  0  0  0  0  0  0  0  0  0  0  0
    4.7568    0.6153    0.0000 H   0  0  0  0  0  0  0  0  0  0  0  0
   -1.7623   -3.1160    0.0000 H   0  0  0  0  0  0  0  0  0  0  0  0
   -0.3470   -0.6284    0.0000 H   0  0  0  0  0  0  0  0  0  0  0  0
   -1.6337   -4.1025    0.0000 C   0  0  0  0  0  0  0  0  0  0  0  0
    4.4566   -2.0438    0.0000 H   0  0  0  0  0  0  0  0  0  0  0  0
    1.2397   -3.1160    0.0000 H   0  0  0  0  0  0  0  0  0  0  0  0
   -1.7225    2.5398    0.0000 C   0  0  0  0  0  0  0  0  0  0  0  0
   -2.2013    1.8806    0.0000 C   0  0  2  0  0  0  0  0  0  0  0  0
   -1.7225    1.2213    0.0000 O   0  0  0  0  0  0  0  0  0  0  0  0
   -3.0487    1.8803    0.0000 C   0  0  0  0  0  0  0  0  0  0  0  0
   -1.7761   -0.6284    0.0000 H   0  0  0  0  0  0  0  0  0  0  0  0
    0.8538   -0.7142    0.0000 C   0  0  0  0  0  0  0  0  0  0  0  0
  1  2  1  1  0  0  0
  1 36  1  0  0  0  0
  1 39  1  0  0  0  0
  1 56  1  0  0  0  0
  2  3  1  0  0  0  0
  2 38  1  6  0  0  0
  2 54  1  0  0  0  0
  3  4  1  0  0  0  0
  4  5  1  0  0  0  0
  4 40  2  0  0  0  0
  5  6  1  0  0  0  0
  6  7  1  0  0  0  0
  6 41  1  6  0  0  0
  6 42  1  0  0  0  0
  7  8  1  0  0  0  0
  8  9  1  0  0  0  0
  9 10  1  1  0  0  0
  9 14  1  0  0  0  0
  9 43  1  0  0  0  0
 10 11  1  6  0  0  0
 10 45  1  0  0  0  0
 11 12  1  6  0  0  0
 11 15  1  0  0  0  0
 11 46  1  0  0  0  0
 12 13  1  1  0  0  0
 12 18  1  0  0  0  0
 12 47  1  0  0  0  0
 13 14  1  0  0  0  0
 13 48  1  6  0  0  0
 15 16  1  0  0  0  0
 16 17  1  6  0  0  0
 16 21  1  0  0  0  0
 16 44  1  0  0  0  0
 17 19  1  0  0  0  0
 19 18  1  0  0  0  0
 19 52  1  6  0  0  0
 20 13  1  6  0  0  0
 20 19  1  0  0  0  0
 20 44  1  0  0  0  0
 21 22  1  0  0  0  0
 22 23  1  0  0  0  0
 23 24  1  0  0  0  0
 23 25  1  0  0  0  0
 23 53  1  6  0  0  0
 25 26  1  0  0  0  0
 26 27  1  0  0  0  0
 26 28  1  0  0  0  0
 26 49  1  1  0  0  0
 27 29  1  0  0  0  0
 28 24  1  0  0  0  0
 28 51  2  0  0  0  0
 29 30  1  0  0  0  0
 30 31  1  0  0  0  0
 30 32  1  0  0  0  0
 30 58  1  1  0  0  0
 31 35  1  0  0  0  0
 32 33  1  0  0  0  0
 33 34  1  0  0  0  0
 33 59  1  6  0  0  0
 34 35  1  0  0  0  0
 34 37  2  0  0  0  0
 35 50  1  1  0  0  0
 36 35  1  0  0  0  0
 42 10  1  0  0  0  0
 54 55  1  0  0  0  0
 55 56  1  0  0  0  0
 55 57  1  6  0  0  0
M  END
$$$$
CC1(C)CCCCC1
 OpenBabel07182308452D

  8  8  0  0  0  0  0  0  0  0999 V2000
   -1.9136   -2.2665    0.0000 C   0  0  0  0  0  0  0  0  0  0  0  0
   -1.1991   -1.8540    0.0000 C   0  0  0  0  0  0  0  0  0  0  0  0
   -1.1991   -1.0290    0.0000 C   0  0  0  0  0  0  0  0  0  0  0  0
   -1.9136   -0.6165    0.0000 C   0  0  0  0  0  0  0  0  0  0  0  0
   -2.6280   -1.0290    0.0000 C   0  0  0  0  0  0  0  0  0  0  0  0
   -2.6280   -1.8540    0.0000 C   0  0  0  0  0  0  0  0  0  0  0  0
   -2.4968   -0.0331    0.0000 C   0  0  0  0  0  0  0  0  0  0  0  0
   -1.3302   -0.0331    0.0000 C   0  0  0  0  0  0  0  0  0  0  0  0
  1  2  1  0  0  0  0
  2  3  1  0  0  0  0
  3  4  1  0  0  0  0
  4  5  1  0  0  0  0
  4  7  1  0  0  0  0
  4  8  1  0  0  0  0
  5  6  1  0  0  0  0
  6  1  1  0  0  0  0
M  END
$$$$
CC1(C)[C@@H]2[C@H]1CNC2
 OpenBabel07182308452D

 10 11  0  0  1  0  0  0  0  0999 V2000
    6.0771   -1.0289    0.0000 N   0  0  0  0  0  0  0  0  0  0  0  0
    7.3467   -0.6164    0.0000 C   0  0  1  0  0  0  0  0  0  0  0  0
    8.0616   -1.0289    0.0000 C   0  0  0  0  0  0  0  0  0  0  0  0
    7.3467   -1.4414    0.0000 C   0  0  1  0  0  0  0  0  0  0  0  0
    6.5620   -0.3614    0.0000 C   0  0  0  0  0  0  0  0  0  0  0  0
    6.5620   -1.6963    0.0000 C   0  0  0  0  0  0  0  0  0  0  0  0
    8.4741   -1.7433    0.0000 C   0  0  0  0  0  0  0  0  0  0  0  0
    8.4741   -0.3143    0.0000 C   0  0  0  0  0  0  0  0  0  0  0  0
    7.6318    0.0243    0.0000 H   0  0  0  0  0  0  0  0  0  0  0  0
    7.6318   -2.0820    0.0000 H   0  0  0  0  0  0  0  0  0  0  0  0
  1  5  1  0  0  0  0
  1  6  1  0  0  0  0
  2  3  1  0  0  0  0
  2  4  1  6  0  0  0
  2  5  1  0  0  0  0
  2  9  1  0  0  0  0
  3  4  1  0  0  0  0
  3  7  1  0  0  0  0
  3  8  1  0  0  0  0
  4  6  1  0  0  0  0
  4 10  1  6  0  0  0
M  END
$$$$
C/C/1=C\CCOC(=O)/C(=C/C=C/C[C@@H](/C(=C/C[C@H](\C(=C1)\C)O)/C)O)/C
 OpenBabel07182308452D

 26 26  0  0  0  0  0  0  0  0999 V2000
    0.4286    1.6595    0.0000 C   0  0  0  0  0  0  0  0  0  0  0  0
    1.8679    1.6595    0.0000 C   0  0  0  0  0  0  0  0  0  0  0  0
    1.1452    2.0713    0.0000 C   0  0  1  0  0  0  0  0  0  0  0  0
   -0.2982   -2.7927    0.0000 C   0  0  0  0  0  0  0  0  0  0  0  0
    0.4103   -3.2045    0.0000 C   0  0  0  0  0  0  0  0  0  0  0  0
    1.1267   -2.8065    0.0000 C   0  0  0  0  0  0  0  0  0  0  0  0
   -0.9826   -0.7854    0.0000 C   0  0  0  0  0  0  0  0  0  0  0  0
   -0.9833   -1.5875    0.0000 C   0  0  0  0  0  0  0  0  0  0  0  0
   -0.2762   -1.9929    0.0000 O   0  0  0  0  0  0  0  0  0  0  0  0
    1.1268   -1.9861    0.0000 C   0  0  0  0  0  0  0  0  0  0  0  0
    1.8326   -1.5895    0.0000 C   0  0  0  0  0  0  0  0  0  0  0  0
    0.4411    0.8521    0.0000 C   0  0  0  0  0  0  0  0  0  0  0  0
   -0.2866    0.4607    0.0000 C   0  0  0  0  0  0  0  0  0  0  0  0
   -0.3044   -0.3545    0.0000 C   0  0  0  0  0  0  0  0  0  0  0  0
    1.8327   -0.8041    0.0000 C   0  0  0  0  0  0  0  0  0  0  0  0
    2.5602   -0.4151    0.0000 C   0  0  1  0  0  0  0  0  0  0  0  0
    2.5800    0.3988    0.0000 C   0  0  0  0  0  0  0  0  0  0  0  0
    1.8723    0.8268    0.0000 C   0  0  0  0  0  0  0  0  0  0  0  0
    1.1429    2.8889    0.0000 O   0  0  0  0  0  0  0  0  0  0  0  0
    2.5870    2.0716    0.0000 C   0  0  0  0  0  0  0  0  0  0  0  0
    1.1179   -0.3872    0.0000 C   0  0  0  0  0  0  0  0  0  0  0  0
    0.4078   -1.5735    0.0000 C   0  0  0  0  0  0  0  0  0  0  0  0
   -1.7043   -1.9963    0.0000 O   0  0  0  0  0  0  0  0  0  0  0  0
   -1.7130   -0.3905    0.0000 C   0  0  0  0  0  0  0  0  0  0  0  0
    3.2811   -0.8238    0.0000 O   0  0  0  0  0  0  0  0  0  0  0  0
    1.9816    3.3763    0.0000 H   0  0  0  0  0  0  0  0  0  0  0  0
  1  3  1  0  0  0  0
  1 12  1  0  0  0  0
  2 20  1  0  0  0  0
  2  3  1  0  0  0  0
  3 19  1  6  0  0  0
  4  9  1  0  0  0  0
  4  5  1  0  0  0  0
  5  6  1  0  0  0  0
  6 10  2  0  0  0  0
  7  8  1  0  0  0  0
  7 24  1  0  0  0  0
  8  9  1  0  0  0  0
  8 23  2  0  0  0  0
 10 22  1  0  0  0  0
 10 11  1  0  0  0  0
 11 15  2  0  0  0  0
 12 13  2  0  0  0  0
 13 14  1  0  0  0  0
 14  7  2  0  0  0  0
 15 21  1  0  0  0  0
 15 16  1  0  0  0  0
 16 25  1  1  0  0  0
 16 17  1  0  0  0  0
 17 18  1  0  0  0  0
 18  2  2  0  0  0  0
 19 26  1  0  0  0  0
M  END
$$$$
O[C@H]1C[C@@H](O)[C@@H]([C@H](O1)C)O
 OpenBabel07182308452D

 11 11  0  0  0  0  0  0  0  0999 V2000
   -1.7340    0.4267    0.0000 O   0  0  0  0  0  0  0  0  0  0  0  0
   -2.4644    0.8187    0.0000 C   0  0  2  0  0  0  0  0  0  0  0  0
   -2.4849    1.6343    0.0000 O   0  0  0  0  0  0  0  0  0  0  0  0
   -3.2111    2.0264    0.0000 C   0  0  1  0  0  0  0  0  0  0  0  0
   -3.9233    1.6047    0.0000 C   0  0  2  0  0  0  0  0  0  0  0  0
   -3.9074    0.7863    0.0000 C   0  0  1  0  0  0  0  0  0  0  0  0
   -3.1763    0.3895    0.0000 C   0  0  0  0  0  0  0  0  0  0  0  0
   -3.2288    2.8468    0.0000 C   0  0  0  0  0  0  0  0  0  0  0  0
   -4.6185    0.3604    0.0000 O   0  0  0  0  0  0  0  0  0  0  0  0
   -4.6509    2.0011    0.0000 O   0  0  0  0  0  0  0  0  0  0  0  0
   -5.4662    0.8319    0.0000 H   0  0  0  0  0  0  0  0  0  0  0  0
  2  1  1  1  0  0  0
  2  3  1  0  0  0  0
  2  7  1  0  0  0  0
  3  4  1  0  0  0  0
  4  8  1  1  0  0  0
  4  5  1  0  0  0  0
  5 10  1  6  0  0  0
  5  6  1  0  0  0  0
  6  9  1  1  0  0  0
  6  7  1  0  0  0  0
  9 11  1  0  0  0  0
M  END
$$$$
Clc1ccc(c(c1O)Cl)O
 OpenBabel07182308452D

 12 12  0  0  0  0  0  0  0  0999 V2000
   -6.0908    1.9706    0.0000 C   0  0  0  0  0  0  0  0  0  0  0  0
   -6.1054    2.7891    0.0000 C   0  0  0  0  0  0  0  0  0  0  0  0
   -6.8307    3.1826    0.0000 C   0  0  0  0  0  0  0  0  0  0  0  0
   -7.5404    2.7588    0.0000 C   0  0  0  0  0  0  0  0  0  0  0  0
   -7.5201    1.9401    0.0000 C   0  0  0  0  0  0  0  0  0  0  0  0
   -6.7943    1.5506    0.0000 C   0  0  0  0  0  0  0  0  0  0  0  0
   -6.8353    4.0025    0.0000 Cl  0  0  0  0  0  0  0  0  0  0  0  0
   -8.2661    3.1725    0.0000 O   0  0  0  0  0  0  0  0  0  0  0  0
   -8.2479    1.5314    0.0000 Cl  0  0  0  0  0  0  0  0  0  0  0  0
   -6.7987    0.7320    0.0000 O   0  0  0  0  0  0  0  0  0  0  0  0
   -8.2712    4.1095    0.0000 H   0  0  0  0  0  0  0  0  0  0  0  0
   -7.6127    0.2679    0.0000 H   0  0  0  0  0  0  0  0  0  0  0  0
  1  2  2  0  0  0  0
  2  3  1  0  0  0  0
  3  4  2  0  0  0  0
  3  7  1  0  0  0  0
  4  5  1  0  0  0  0
  4  8  1  0  0  0  0
  5  6  2  0  0  0  0
  5  9  1  0  0  0  0
  6  1  1  0  0  0  0
  6 10  1  0  0  0  0
  8 11  1  0  0  0  0
 10 12  1  0  0  0  0
M  END
$$$$
O[C@@H]1COC([C@H]([C@@H]1O)O)(C)C
 OpenBabel07182308452D

 14 14  0  0  0  0  0  0  0  0999 V2000
    4.1110   -0.8238    0.0000 C   0  0  0  0  0  0  0  0  0  0  0  0
    4.5260   -1.5337    0.0000 C   0  0  2  0  0  0  0  0  0  0  0  0
    5.3552   -1.5358    0.0000 C   0  0  2  0  0  0  0  0  0  0  0  0
    5.7756   -0.8296    0.0000 C   0  0  1  0  0  0  0  0  0  0  0  0
    5.3605   -0.1167    0.0000 C   0  0  0  0  0  0  0  0  0  0  0  0
    4.5248   -0.1128    0.0000 O   0  0  0  0  0  0  0  0  0  0  0  0
    5.3557    0.6983    0.0000 C   0  0  0  0  0  0  0  0  0  0  0  0
    6.0756    0.2957    0.0000 C   0  0  0  0  0  0  0  0  0  0  0  0
    6.6034   -0.8238    0.0000 O   0  0  0  0  0  0  0  0  0  0  0  0
    4.1109   -2.2438    0.0000 O   0  0  0  0  0  0  0  0  0  0  0  0
    5.7687   -2.2455    0.0000 O   0  0  0  0  0  0  0  0  0  0  0  0
    3.6960   -1.5317    0.0000 H   0  0  0  0  0  0  0  0  0  0  0  0
    3.1409   -2.2386    0.0000 H   0  0  0  0  0  0  0  0  0  0  0  0
    5.2870   -3.0875    0.0000 H   0  0  0  0  0  0  0  0  0  0  0  0
  1  2  1  0  0  0  0
  1  6  1  0  0  0  0
  1 12  1  0  0  0  0
  2  3  1  0  0  0  0
  2 10  1  6  0  0  0
  3  4  1  0  0  0  0
  3 11  1  6  0  0  0
  4  5  1  0  0  0  0
  4  9  1  1  0  0  0
  5  6  1  0  0  0  0
  5  7  1  0  0  0  0
  5  8  1  0  0  0  0
 10 13  1  0  0  0  0
 11 14  1  0  0  0  0
M  END
$$$$
Oc1ccnc2c1cccc2
 OpenBabel07182308452D

 11 12  0  0  0  0  0  0  0  0999 V2000
   -3.2176    1.9800    0.0000 C   0  0  0  0  0  0  0  0  0  0  0  0
   -3.2176    1.1550    0.0000 C   0  0  0  0  0  0  0  0  0  0  0  0
   -3.9189    0.7425    0.0000 C   0  0  0  0  0  0  0  0  0  0  0  0
   -4.6614    1.1550    0.0000 C   0  0  0  0  0  0  0  0  0  0  0  0
   -4.6614    1.9800    0.0000 C   0  0  0  0  0  0  0  0  0  0  0  0
   -3.9189    2.3926    0.0000 N   0  0  0  0  0  0  0  0  0  0  0  0
   -2.5163    2.3926    0.0000 C   0  0  0  0  0  0  0  0  0  0  0  0
   -1.7738    1.9800    0.0000 C   0  0  0  0  0  0  0  0  0  0  0  0
   -1.7738    1.1550    0.0000 C   0  0  0  0  0  0  0  0  0  0  0  0
   -2.5163    0.7425    0.0000 C   0  0  0  0  0  0  0  0  0  0  0  0
   -3.9189   -0.0824    0.0000 O   0  0  0  0  0  0  0  0  0  0  0  0
  1  2  2  0  0  0  0
  1  6  1  0  0  0  0
  1  7  1  0  0  0  0
  2  3  1  0  0  0  0
  2 10  1  0  0  0  0
  3  4  2  0  0  0  0
  3 11  1  0  0  0  0
  4  5  1  0  0  0  0
  5  6  2  0  0  0  0
  7  8  2  0  0  0  0
  8  9  1  0  0  0  0
  9 10  2  0  0  0  0
M  END
$$$$
c1ncc2c(n1)[nH]cc2
 OpenBabel07182308452D

 10 11  0  0  1  0  0  0  0  0999 V2000
   -0.1435   -0.0305    0.0000 C   0  0  0  0  0  0  0  0  0  0  0  0
   -0.6284   -0.6979    0.0000 C   0  0  0  0  0  0  0  0  0  0  0  0
   -0.1435   -1.3654    0.0000 N   0  0  0  0  0  0  0  0  0  0  0  0
    0.6411   -1.1104    0.0000 C   0  0  0  0  0  0  0  0  0  0  0  0
    0.6411   -0.2854    0.0000 C   0  0  0  0  0  0  0  0  0  0  0  0
    1.3556    0.1271    0.0000 C   0  0  0  0  0  0  0  0  0  0  0  0
    2.0701   -0.2854    0.0000 N   0  0  0  0  0  0  0  0  0  0  0  0
    2.0701   -1.1104    0.0000 C   0  0  0  0  0  0  0  0  0  0  0  0
    1.3556   -1.5229    0.0000 N   0  0  0  0  0  0  0  0  0  0  0  0
   -0.4477   -2.3017    0.0000 H   0  0  0  0  0  0  0  0  0  0  0  0
  1  2  2  0  0  0  0
  1  5  1  0  0  0  0
  2  3  1  0  0  0  0
  3  4  1  0  0  0  0
  3 10  1  0  0  0  0
  4  5  1  0  0  0  0
  4  9  2  0  0  0  0
  5  6  2  0  0  0  0
  6  7  1  0  0  0  0
  7  8  2  0  0  0  0
  8  9  1  0  0  0  0
M  END
$$$$
Cn1cccn1
 OpenBabel07182308452D

  6  6  0  0  1  0  0  0  0  0999 V2000
    1.3556    0.9521    0.0000 C   0  0  0  0  0  0  0  0  0  0  0  0
    0.6881    1.4370    0.0000 C   0  0  0  0  0  0  0  0  0  0  0  0
    0.9431    2.2216    0.0000 N   0  0  0  0  0  0  0  0  0  0  0  0
    1.7681    2.2216    0.0000 N   0  0  0  0  0  0  0  0  0  0  0  0
    2.0230    1.4370    0.0000 C   0  0  0  0  0  0  0  0  0  0  0  0
    2.2530    2.8890    0.0000 C   0  0  0  0  0  0  0  0  0  0  0  0
  1  2  1  0  0  0  0
  1  5  2  0  0  0  0
  2  3  2  0  0  0  0
  3  4  1  0  0  0  0
  4  5  1  0  0  0  0
  6  4  1  0  0  0  0
M  END
$$$$
C/C(=C\C#N)/O
 OpenBabel07182308452D

  7  6  0  0  0  0  0  0  0  0999 V2000
    0.7145    4.5375    0.0000 C   0  0  0  0  0  0  0  0  0  0  0  0
   -0.7145    3.7125    0.0000 C   0  0  0  0  0  0  0  0  0  0  0  0
    0.7145    3.7125    0.0000 C   0  0  0  0  0  0  0  0  0  0  0  0
   -0.0000    3.3000    0.0000 C   0  0  0  0  0  0  0  0  0  0  0  0
   -1.4289    4.1250    0.0000 N   0  0  0  0  0  0  0  0  0  0  0  0
    1.4289    3.3000    0.0000 O   0  0  0  0  0  0  0  0  0  0  0  0
    1.4289    2.3630    0.0000 H   0  0  0  0  0  0  0  0  0  0  0  0
  3  1  1  0  0  0  0
  4  2  1  0  0  0  0
  4  3  2  0  0  0  0
  5  2  3  0  0  0  0
  6  3  1  0  0  0  0
  6  7  1  0  0  0  0
M  END
$$$$
Fc1ccc(c(c1)F)N
 OpenBabel07182308452D

 10 10  0  0  0  0  0  0  0  0999 V2000
   12.4167  -11.3589    0.0000 C   0  0  0  0  0  0  0  0  0  0  0  0
   13.2237  -11.1875    0.0000 C   0  0  0  0  0  0  0  0  0  0  0  0
   13.4785  -10.4028    0.0000 C   0  0  0  0  0  0  0  0  0  0  0  0
   12.1196   -9.9612    0.0000 C   0  0  0  0  0  0  0  0  0  0  0  0
   11.8647  -10.7459    0.0000 C   0  0  0  0  0  0  0  0  0  0  0  0
   12.9266   -9.7896    0.0000 C   0  0  0  0  0  0  0  0  0  0  0  0
   11.5676   -9.3482    0.0000 F   0  0  0  0  0  0  0  0  0  0  0  0
   12.1618  -12.1436    0.0000 F   0  0  0  0  0  0  0  0  0  0  0  0
   13.7757  -11.8005    0.0000 N   0  0  0  0  0  0  0  0  0  0  0  0
   13.4715  -12.7368    0.0000 H   0  0  0  0  0  0  0  0  0  0  0  0
  1  2  2  0  0  0  0
  1  8  1  0  0  0  0
  2  3  1  0  0  0  0
  2  9  1  0  0  0  0
  3  6  2  0  0  0  0
  4  7  1  0  0  0  0
  5  1  1  0  0  0  0
  5  4  2  0  0  0  0
  6  4  1  0  0  0  0
  9 10  1  0  0  0  0
M  END
$$$$
c1cnc2c(c1)cc[nH]2
 OpenBabel07182308452D

 10 11  0  0  0  0  0  0  0  0999 V2000
   11.2876  -12.3694    0.0000 C   0  0  0  0  0  0  0  0  0  0  0  0
    8.5892  -11.9569    0.0000 C   0  0  0  0  0  0  0  0  0  0  0  0
    8.5892  -12.7819    0.0000 C   0  0  0  0  0  0  0  0  0  0  0  0
    9.3037  -13.1944    0.0000 N   0  0  0  0  0  0  0  0  0  0  0  0
    9.3037  -11.5445    0.0000 C   0  0  0  0  0  0  0  0  0  0  0  0
   10.8028  -13.0368    0.0000 N   0  0  0  0  0  0  0  0  0  0  0  0
   10.8028  -11.7020    0.0000 C   0  0  0  0  0  0  0  0  0  0  0  0
   10.0181  -11.9569    0.0000 C   0  0  0  0  0  0  0  0  0  0  0  0
   10.0181  -12.7819    0.0000 C   0  0  0  0  0  0  0  0  0  0  0  0
   11.1071  -13.9731    0.0000 H   0  0  0  0  0  0  0  0  0  0  0  0
  1  6  1  0  0  0  0
  1  7  2  0  0  0  0
  2  3  2  0  0  0  0
  2  5  1  0  0  0  0
  3  4  1  0  0  0  0
  5  8  2  0  0  0  0
  6 10  1  0  0  0  0
  8  7  1  0  0  0  0
  8  9  1  0  0  0  0
  9  4  2  0  0  0  0
  9  6  1  0  0  0  0
M  END
$$$$
Cc1nc2ccccc2c(n1)C
 OpenBabel07182308452D

 12 13  0  0  0  0  0  0  0  0999 V2000
   -4.7456    0.4124    0.0000 C   0  0  0  0  0  0  0  0  0  0  0  0
   -4.7456   -0.4126    0.0000 C   0  0  0  0  0  0  0  0  0  0  0  0
   -4.0438   -0.8253    0.0000 C   0  0  0  0  0  0  0  0  0  0  0  0
   -3.2598   -0.4126    0.0000 C   0  0  0  0  0  0  0  0  0  0  0  0
   -3.2598    0.4124    0.0000 C   0  0  0  0  0  0  0  0  0  0  0  0
   -4.0438    0.8252    0.0000 C   0  0  0  0  0  0  0  0  0  0  0  0
   -2.5584   -0.8253    0.0000 C   0  0  0  0  0  0  0  0  0  0  0  0
   -1.8568   -0.4126    0.0000 N   0  0  0  0  0  0  0  0  0  0  0  0
   -1.8568    0.4124    0.0000 C   0  0  0  0  0  0  0  0  0  0  0  0
   -2.5584    0.8252    0.0000 N   0  0  0  0  0  0  0  0  0  0  0  0
   -2.5584   -1.6506    0.0000 C   0  0  0  0  0  0  0  0  0  0  0  0
   -1.1553    0.8252    0.0000 C   0  0  0  0  0  0  0  0  0  0  0  0
  1  2  1  0  0  0  0
  1  6  2  0  0  0  0
  2  3  2  0  0  0  0
  3  4  1  0  0  0  0
  4  5  2  0  0  0  0
  4  7  1  0  0  0  0
  5  6  1  0  0  0  0
  5 10  1  0  0  0  0
  7  8  2  0  0  0  0
  7 11  1  0  0  0  0
  8  9  1  0  0  0  0
  9 10  2  0  0  0  0
  9 12  1  0  0  0  0
M  END
$$$$
O=c1cccc[nH]1
 OpenBabel07182308452D

  7  7  0  0  0  0  0  0  0  0999 V2000
    0.7124   -1.0207    0.0000 C   0  0  0  0  0  0  0  0  0  0  0  0
   -0.0125    0.2125    0.0000 N   0  0  0  0  0  0  0  0  0  0  0  0
    0.7082   -0.1958    0.0000 C   0  0  0  0  0  0  0  0  0  0  0  0
   -0.7166   -1.0248    0.0000 C   0  0  0  0  0  0  0  0  0  0  0  0
   -0.7206   -0.2040    0.0000 C   0  0  0  0  0  0  0  0  0  0  0  0
    0.0000   -1.4372    0.0000 C   0  0  0  0  0  0  0  0  0  0  0  0
    1.4206    0.2208    0.0000 O   0  0  0  0  0  0  0  0  0  0  0  0
  2  3  1  0  0  0  0
  3  1  1  0  0  0  0
  4  6  1  0  0  0  0
  4  5  2  0  0  0  0
  5  2  1  0  0  0  0
  6  1  2  0  0  0  0
  7  3  2  0  0  0  0
M  END
$$$$
C[C@@H]1CO1
 OpenBabel07182308452D

  4  4  0  0  1  0  0  0  0  0999 V2000
   16.6390  -10.5165    0.0000 C   0  0  1  0  0  0  0  0  0  0  0  0
   17.3549  -10.1289    0.0000 O   0  0  0  0  0  0  0  0  0  0  0  0
   17.3535  -10.9291    0.0000 C   0  0  0  0  0  0  0  0  0  0  0  0
   16.6390   -9.6915    0.0000 C   0  0  0  0  0  0  0  0  0  0  0  0
  1  2  1  0  0  0  0
  1  3  1  0  0  0  0
  1  4  1  1  0  0  0
  2  3  1  0  0  0  0
M  END
$$$$
O=C1NCC(=O)NCCSSC[C@@H]2NC(=O)[C@H](C)NC(=O)[C@@H](NC(=O)[C@@H]3CSSC[C@@H](C(=O)NC1)NC(=O)[C@H](C)NC(=O)[C@@H]1CCCN1C(=O)[C@H](C)NC(=O)[C@@H](NC2=O)CSSC[C@@H](C(=O)N3)N)C
 OpenBabel07182308452D

 85 88  0  0  1  0  0  0  0  0999 V2000
    4.4999   -7.7082    0.0000 C   0  0  0  0  0  0  0  0  0  0  0  0
    5.2083   -8.1249    0.0000 C   0  0  2  0  0  0  0  0  0  0  0  0
    5.9166   -7.7082    0.0000 N   0  0  0  0  0  0  0  0  0  0  0  0
    6.6666   -8.1249    0.0000 C   0  0  0  0  0  0  0  0  0  0  0  0
    7.3749   -7.7082    0.0000 C   0  0  1  0  0  0  0  0  0  0  0  0
    8.0832   -8.1249    0.0000 N   0  0  0  0  0  0  0  0  0  0  0  0
    8.8332   -7.7082    0.0000 C   0  0  0  0  0  0  0  0  0  0  0  0
    9.5416   -8.1249    0.0000 C   0  0  2  0  0  0  0  0  0  0  0  0
   10.2499   -7.7082    0.0000 C   0  0  0  0  0  0  0  0  0  0  0  0
   10.9999   -8.1249    0.0000 S   0  0  0  0  0  0  0  0  0  0  0  0
   10.9999   -8.9582    0.0000 S   0  0  0  0  0  0  0  0  0  0  0  0
   10.2915   -9.3749    0.0000 C   0  0  0  0  0  0  0  0  0  0  0  0
   10.2915  -10.2083    0.0000 C   0  0  2  0  0  0  0  0  0  0  0  0
    9.5832  -10.6248    0.0000 N   0  0  0  0  0  0  0  0  0  0  0  0
    8.8332  -10.2083    0.0000 C   0  0  0  0  0  0  0  0  0  0  0  0
    8.1249  -10.6248    0.0000 C   0  0  1  0  0  0  0  0  0  0  0  0
    7.4165  -10.2083    0.0000 N   0  0  0  0  0  0  0  0  0  0  0  0
    6.6666  -10.6248    0.0000 C   0  0  0  0  0  0  0  0  0  0  0  0
    5.9582  -10.2083    0.0000 C   0  0  2  0  0  0  0  0  0  0  0  0
    5.2500  -10.6248    0.0000 C   0  0  0  0  0  0  0  0  0  0  0  0
    8.8332   -9.3749    0.0000 O   0  0  0  0  0  0  0  0  0  0  0  0
    8.1249  -13.0415    0.0000 C   0  0  0  0  0  0  0  0  0  0  0  0
    6.6666  -11.4582    0.0000 O   0  0  0  0  0  0  0  0  0  0  0  0
    5.9582   -9.3749    0.0000 N   0  0  0  0  0  0  0  0  0  0  0  0
    5.2083   -8.9582    0.0000 C   0  0  0  0  0  0  0  0  0  0  0  0
    6.6666   -8.8332    0.0000 O   0  0  0  0  0  0  0  0  0  0  0  0
    7.3749   -6.8750    0.0000 C   0  0  0  0  0  0  0  0  0  0  0  0
    8.8332   -6.8750    0.0000 O   0  0  0  0  0  0  0  0  0  0  0  0
    9.5416   -8.8332    0.0000 N   0  0  0  0  0  0  0  0  0  0  0  0
    8.0832   -6.4583    0.0000 S   0  0  0  0  0  0  0  0  0  0  0  0
   10.9999  -10.6248    0.0000 C   0  0  0  0  0  0  0  0  0  0  0  0
   11.7499  -10.2083    0.0000 N   0  0  0  0  0  0  0  0  0  0  0  0
   12.4582  -10.6248    0.0000 C   0  0  2  0  0  0  0  0  0  0  0  0
   13.1665  -10.2083    0.0000 C   0  0  0  0  0  0  0  0  0  0  0  0
   13.9165  -10.6248    0.0000 N   0  0  0  0  0  0  0  0  0  0  0  0
   10.9999  -11.4582    0.0000 O   0  0  0  0  0  0  0  0  0  0  0  0
    4.5416   -9.3749    0.0000 O   0  0  0  0  0  0  0  0  0  0  0  0
   13.1665   -9.3749    0.0000 O   0  0  0  0  0  0  0  0  0  0  0  0
   13.9165  -11.4582    0.0000 C   0  0  0  0  0  0  0  0  0  0  0  0
   14.7082  -11.7082    0.0000 C   0  0  0  0  0  0  0  0  0  0  0  0
   15.1664  -11.0415    0.0000 C   0  0  0  0  0  0  0  0  0  0  0  0
   14.7082  -10.3748    0.0000 C   0  0  1  0  0  0  0  0  0  0  0  0
   14.9582   -9.5832    0.0000 C   0  0  0  0  0  0  0  0  0  0  0  0
   15.7915   -9.4165    0.0000 O   0  0  0  0  0  0  0  0  0  0  0  0
   14.4165   -8.9582    0.0000 N   0  0  0  0  0  0  0  0  0  0  0  0
   14.4165   -8.1249    0.0000 C   0  0  2  0  0  0  0  0  0  0  0  0
   15.1248   -7.7082    0.0000 C   0  0  0  0  0  0  0  0  0  0  0  0
   13.7081   -7.7082    0.0000 C   0  0  0  0  0  0  0  0  0  0  0  0
   15.8331   -8.1249    0.0000 O   0  0  0  0  0  0  0  0  0  0  0  0
   15.1248   -6.8750    0.0000 N   0  0  0  0  0  0  0  0  0  0  0  0
   14.4165   -6.4583    0.0000 C   0  0  1  0  0  0  0  0  0  0  0  0
   13.7081   -6.8750    0.0000 C   0  0  0  0  0  0  0  0  0  0  0  0
   14.4165   -5.6249    0.0000 C   0  0  0  0  0  0  0  0  0  0  0  0
   13.0415   -6.4583    0.0000 S   0  0  0  0  0  0  0  0  0  0  0  0
   15.1248   -5.2083    0.0000 N   0  0  0  0  0  0  0  0  0  0  0  0
   15.8331   -5.6249    0.0000 C   0  0  0  0  0  0  0  0  0  0  0  0
   13.7081   -5.2083    0.0000 O   0  0  0  0  0  0  0  0  0  0  0  0
   15.8331   -6.4583    0.0000 C   0  0  0  0  0  0  0  0  0  0  0  0
   16.5832   -6.8750    0.0000 N   0  0  0  0  0  0  0  0  0  0  0  0
   16.5832   -7.7082    0.0000 C   0  0  0  0  0  0  0  0  0  0  0  0
    8.8332  -13.4581    0.0000 S   0  0  0  0  0  0  0  0  0  0  0  0
   14.9165  -13.4581    0.0000 S   0  0  0  0  0  0  0  0  0  0  0  0
   17.2914   -8.1249    0.0000 C   0  0  0  0  0  0  0  0  0  0  0  0
   17.2914  -11.8332    0.0000 N   0  0  0  0  0  0  0  0  0  0  0  0
   16.5832   -6.0416    0.0000 O   0  0  0  0  0  0  0  0  0  0  0  0
   12.1248  -11.4582    0.0000 C   0  0  0  0  0  0  0  0  0  0  0  0
   17.9998   -7.7082    0.0000 O   0  0  0  0  0  0  0  0  0  0  0  0
   16.4165  -12.4998    0.0000 C   0  0  0  0  0  0  0  0  0  0  0  0
   15.5831  -12.4998    0.0000 C   0  0  0  0  0  0  0  0  0  0  0  0
   15.8331   -4.7916    0.0000 H   0  0  0  0  0  0  0  0  0  0  0  0
   15.8331  -13.0832    0.0000 H   0  0  0  0  0  0  0  0  0  0  0  0
    8.7082  -11.2082    0.0000 H   0  0  0  0  0  0  0  0  0  0  0  0
    5.9045   -6.7238    0.0000 H   0  0  0  0  0  0  0  0  0  0  0  0
    8.0711   -9.1093    0.0000 H   0  0  0  0  0  0  0  0  0  0  0  0
    9.5953  -11.6092    0.0000 H   0  0  0  0  0  0  0  0  0  0  0  0
    7.4286   -9.2239    0.0000 H   0  0  0  0  0  0  0  0  0  0  0  0
    6.8067   -8.8757    0.0000 H   0  0  0  0  0  0  0  0  0  0  0  0
    8.6583   -9.3432    0.0000 H   0  0  0  0  0  0  0  0  0  0  0  0
   10.4249   -9.3432    0.0000 H   0  0  0  0  0  0  0  0  0  0  0  0
   11.7620   -9.2239    0.0000 H   0  0  0  0  0  0  0  0  0  0  0  0
   13.4941   -9.3023    0.0000 H   0  0  0  0  0  0  0  0  0  0  0  0
   15.9794   -6.3862    0.0000 H   0  0  0  0  0  0  0  0  0  0  0  0
   15.1248   -4.2238    0.0000 H   0  0  0  0  0  0  0  0  0  0  0  0
   17.4317   -6.3757    0.0000 H   0  0  0  0  0  0  0  0  0  0  0  0
   18.1736  -12.2701    0.0000 H   0  0  0  0  0  0  0  0  0  0  0  0
  2  1  1  6  0  0  0
  2  3  1  0  0  0  0
  3  4  1  0  0  0  0
  3 73  1  0  0  0  0
  4  5  1  0  0  0  0
  4 26  2  0  0  0  0
  5  6  1  0  0  0  0
  5 27  1  6  0  0  0
  6  7  1  0  0  0  0
  6 74  1  0  0  0  0
  7  8  1  0  0  0  0
  7 28  2  0  0  0  0
  8  9  1  0  0  0  0
  8 29  1  6  0  0  0
  9 10  1  0  0  0  0
 10 11  1  0  0  0  0
 11 12  1  0  0  0  0
 13 12  1  1  0  0  0
 13 14  1  0  0  0  0
 13 31  1  0  0  0  0
 14 15  1  0  0  0  0
 14 75  1  0  0  0  0
 15 16  1  0  0  0  0
 15 21  2  0  0  0  0
 16 17  1  0  0  0  0
 16 22  1  0  0  0  0
 16 72  1  1  0  0  0
 17 18  1  0  0  0  0
 17 76  1  0  0  0  0
 18 19  1  0  0  0  0
 18 23  2  0  0  0  0
 19 20  1  6  0  0  0
 19 24  1  0  0  0  0
 22 61  1  0  0  0  0
 24 25  1  0  0  0  0
 24 77  1  0  0  0  0
 25  2  1  0  0  0  0
 25 37  2  0  0  0  0
 27 30  1  0  0  0  0
 29 78  1  0  0  0  0
 29 79  1  0  0  0  0
 30 54  1  0  0  0  0
 31 32  1  0  0  0  0
 31 36  2  0  0  0  0
 32 33  1  0  0  0  0
 32 80  1  0  0  0  0
 33 34  1  0  0  0  0
 33 66  1  6  0  0  0
 34 35  1  0  0  0  0
 34 38  2  0  0  0  0
 35 39  1  0  0  0  0
 39 40  1  0  0  0  0
 40 41  1  0  0  0  0
 42 41  1  6  0  0  0
 42 35  1  0  0  0  0
 42 43  1  0  0  0  0
 43 44  2  0  0  0  0
 43 45  1  0  0  0  0
 45 46  1  0  0  0  0
 45 81  1  0  0  0  0
 46 47  1  0  0  0  0
 46 48  1  1  0  0  0
 47 49  2  0  0  0  0
 47 50  1  0  0  0  0
 50 82  1  0  0  0  0
 51 50  1  0  0  0  0
 51 52  1  1  0  0  0
 51 53  1  0  0  0  0
 53 55  1  0  0  0  0
 53 57  2  0  0  0  0
 54 52  1  0  0  0  0
 55 56  1  0  0  0  0
 55 83  1  0  0  0  0
 56 58  1  0  0  0  0
 56 70  1  0  0  0  0
 58 59  1  0  0  0  0
 58 65  2  0  0  0  0
 59 60  1  0  0  0  0
 59 84  1  0  0  0  0
 60 63  1  0  0  0  0
 61 62  1  0  0  0  0
 63 64  1  0  0  0  0
 63 67  2  0  0  0  0
 64 85  1  0  0  0  0
 68 64  1  0  0  0  0
 68 69  1  0  0  0  0
 68 71  1  0  0  0  0
 69 62  1  0  0  0  0
M  END
$$$$
Oc1cccc(c1)F
 OpenBabel07182308452D

  8  8  0  0  0  0  0  0  0  0999 V2000
   13.0763  -10.6837    0.0000 C   0  0  0  0  0  0  0  0  0  0  0  0
   12.3750  -11.0962    0.0000 C   0  0  0  0  0  0  0  0  0  0  0  0
   11.6325  -10.6837    0.0000 C   0  0  0  0  0  0  0  0  0  0  0  0
   11.6325   -9.8587    0.0000 C   0  0  0  0  0  0  0  0  0  0  0  0
   12.3338   -9.4462    0.0000 C   0  0  0  0  0  0  0  0  0  0  0  0
   13.0763   -9.8587    0.0000 C   0  0  0  0  0  0  0  0  0  0  0  0
   10.9725   -9.4462    0.0000 O   0  0  0  0  0  0  0  0  0  0  0  0
   12.3750  -11.9212    0.0000 F   0  0  0  0  0  0  0  0  0  0  0  0
  1  2  2  0  0  0  0
  1  6  1  0  0  0  0
  2  3  1  0  0  0  0
  2  8  1  0  0  0  0
  3  4  2  0  0  0  0
  4  5  1  0  0  0  0
  4  7  1  0  0  0  0
  5  6  2  0  0  0  0
M  END
$$$$
C[N+]12CCC(CC1)CC2
 OpenBabel07182308452D

  9 10  0  0  1  0  0  0  0  0999 V2000
   12.0162   -5.3093    0.0000 C   0  0  0  0  0  0  0  0  0  0  0  0
   11.2737   -4.8968    0.0000 C   0  0  3  0  0  0  0  0  0  0  0  0
   12.0162   -6.1756    0.0000 C   0  0  0  0  0  0  0  0  0  0  0  0
   10.5312   -5.3093    0.0000 C   0  0  0  0  0  0  0  0  0  0  0  0
   11.5212   -5.6393    0.0000 C   0  0  0  0  0  0  0  0  0  0  0  0
   11.2737   -6.5881    0.0000 N   0  3  3  0  0  0  0  0  0  0  0  0
   10.5312   -6.1343    0.0000 C   0  0  0  0  0  0  0  0  0  0  0  0
   11.0262   -5.7631    0.0000 C   0  0  0  0  0  0  0  0  0  0  0  0
   11.2737   -7.4131    0.0000 C   0  0  0  0  0  0  0  0  0  0  0  0
  1  2  1  0  0  0  0
  1  3  1  0  0  0  0
  2  4  1  0  0  0  0
  2  5  1  0  0  0  0
  3  6  1  0  0  0  0
  4  7  1  0  0  0  0
  5  8  1  0  0  0  0
  6  7  1  0  0  0  0
  6  8  1  0  0  0  0
  6  9  1  0  0  0  0
M  CHG  1   6   1
M  END
$$$$
S=C1NC(=O)C(N1)(C)C
 OpenBabel07182308452D

  9  9  0  0  0  0  0  0  0  0999 V2000
    6.8476  -12.0865    0.0000 C   0  0  0  0  0  0  0  0  0  0  0  0
    7.0951  -11.3027    0.0000 N   0  0  0  0  0  0  0  0  0  0  0  0
    7.9202  -11.3027    0.0000 C   0  0  0  0  0  0  0  0  0  0  0  0
    8.1677  -12.0865    0.0000 N   0  0  0  0  0  0  0  0  0  0  0  0
    7.5077  -12.5815    0.0000 C   0  0  0  0  0  0  0  0  0  0  0  0
    7.5077  -13.4065    0.0000 O   0  0  0  0  0  0  0  0  0  0  0  0
    8.4079  -10.6373    0.0000 S   0  0  0  0  0  0  0  0  0  0  0  0
    6.1332  -11.6740    0.0000 C   0  0  0  0  0  0  0  0  0  0  0  0
    6.3931  -12.7750    0.0000 C   0  0  0  0  0  0  0  0  0  0  0  0
  1  2  1  0  0  0  0
  1  5  1  0  0  0  0
  1  8  1  0  0  0  0
  1  9  1  0  0  0  0
  2  3  1  0  0  0  0
  3  4  1  0  0  0  0
  3  7  2  0  0  0  0
  4  5  1  0  0  0  0
  5  6  2  0  0  0  0
M  END
$$$$
Cc1ccccc1C#Cc1cnc2n1nccc2
 OpenBabel07182308452D

 18 20  0  0  0  0  0  0  0  0999 V2000
   13.6137  -17.9266    0.0000 C   0  0  0  0  0  0  0  0  0  0  0  0
   12.9038  -17.5213    0.0000 C   0  0  0  0  0  0  0  0  0  0  0  0
   12.1913  -17.9372    0.0000 C   0  0  0  0  0  0  0  0  0  0  0  0
   12.1953  -18.7622    0.0000 C   0  0  0  0  0  0  0  0  0  0  0  0
   12.9052  -19.1676    0.0000 C   0  0  0  0  0  0  0  0  0  0  0  0
   13.6177  -18.7516    0.0000 C   0  0  0  0  0  0  0  0  0  0  0  0
   11.4911  -19.1735    0.0000 C   0  0  0  0  0  0  0  0  0  0  0  0
   11.4918  -17.5377    0.0000 C   0  0  0  0  0  0  0  0  0  0  0  0
   10.7773  -17.1252    0.0000 C   0  0  0  0  0  0  0  0  0  0  0  0
   10.0628  -16.7127    0.0000 C   0  0  0  0  0  0  0  0  0  0  0  0
   10.0501  -15.8813    0.0000 C   0  0  0  0  0  0  0  0  0  0  0  0
    9.2559  -15.6360    0.0000 N   0  0  0  0  0  0  0  0  0  0  0  0
    8.7771  -16.3156    0.0000 C   0  0  0  0  0  0  0  0  0  0  0  0
    9.2756  -16.9809    0.0000 N   0  0  0  0  0  0  0  0  0  0  0  0
    7.9580  -16.4138    0.0000 C   0  0  0  0  0  0  0  0  0  0  0  0
    7.6335  -17.1724    0.0000 C   0  0  0  0  0  0  0  0  0  0  0  0
    8.1319  -17.8376    0.0000 C   0  0  0  0  0  0  0  0  0  0  0  0
    8.9510  -17.7394    0.0000 N   0  0  0  0  0  0  0  0  0  0  0  0
  1  2  2  0  0  0  0
  1  6  1  0  0  0  0
  2  3  1  0  0  0  0
  3  4  2  0  0  0  0
  3  8  1  0  0  0  0
  4  5  1  0  0  0  0
  4  7  1  0  0  0  0
  5  6  2  0  0  0  0
  8  9  3  0  0  0  0
  9 10  1  0  0  0  0
 10 11  2  0  0  0  0
 10 14  1  0  0  0  0
 11 12  1  0  0  0  0
 12 13  2  0  0  0  0
 13 14  1  0  0  0  0
 13 15  1  0  0  0  0
 14 18  1  0  0  0  0
 15 16  2  0  0  0  0
 16 17  1  0  0  0  0
 17 18  2  0  0  0  0
M  END
$$$$
Brc1ccc2c(c1)cc(cn2)C
 OpenBabel07182308452D

 12 13  0  0  1  0  0  0  0  0999 V2000
    8.9513  -14.3137    0.0000 C   0  0  0  0  0  0  0  0  0  0  0  0
    8.9513  -15.1387    0.0000 C   0  0  0  0  0  0  0  0  0  0  0  0
    9.6657  -15.5512    0.0000 C   0  0  0  0  0  0  0  0  0  0  0  0
   10.3802  -15.1387    0.0000 C   0  0  0  0  0  0  0  0  0  0  0  0
   10.3802  -14.3137    0.0000 C   0  0  0  0  0  0  0  0  0  0  0  0
    9.6657  -13.9012    0.0000 C   0  0  0  0  0  0  0  0  0  0  0  0
   11.0947  -13.9012    0.0000 C   0  0  0  0  0  0  0  0  0  0  0  0
   11.0947  -13.0762    0.0000 C   0  0  0  0  0  0  0  0  0  0  0  0
   10.3802  -12.6637    0.0000 C   0  0  0  0  0  0  0  0  0  0  0  0
    9.6657  -13.0762    0.0000 N   0  0  0  0  0  0  0  0  0  0  0  0
   11.8103  -12.6630    0.0000 C   0  0  0  0  0  0  0  0  0  0  0  0
    9.6657  -16.3761    0.0000 Br  0  0  0  0  0  0  0  0  0  0  0  0
  1  2  2  0  0  0  0
  1  6  1  0  0  0  0
  2  3  1  0  0  0  0
  3  4  2  0  0  0  0
  3 12  1  0  0  0  0
  4  5  1  0  0  0  0
  5  6  2  0  0  0  0
  5  7  1  0  0  0  0
  6 10  1  0  0  0  0
  7  8  2  0  0  0  0
  8  9  1  0  0  0  0
  8 11  1  0  0  0  0
  9 10  2  0  0  0  0
M  END
$$$$
O=C1CC[C@]2(C(=C1O)CC[C@@H]1[C@@H]2CC[C@]2([C@H]1CCC2=O)C)C
 OpenBabel07182308452D

 26 29  0  0  1  0  0  0  0  0999 V2000
   14.3963   -9.9000    0.0000 C   0  0  1  0  0  0  0  0  0  0  0  0
   14.3963  -10.7250    0.0000 C   0  0  1  0  0  0  0  0  0  0  0  0
   15.8252  -10.7250    0.0000 C   0  0  0  0  0  0  0  0  0  0  0  0
   15.8252   -9.9000    0.0000 C   0  0  0  0  0  0  0  0  0  0  0  0
   15.1107   -9.4875    0.0000 C   0  0  0  0  0  0  0  0  0  0  0  0
   13.6818   -9.4875    0.0000 C   0  0  0  0  0  0  0  0  0  0  0  0
   12.9673   -9.9000    0.0000 C   0  0  0  0  0  0  0  0  0  0  0  0
   12.9673  -10.7250    0.0000 C   0  0  1  0  0  0  0  0  0  0  0  0
   13.6818  -11.1375    0.0000 C   0  0  1  0  0  0  0  0  0  0  0  0
   12.2528  -11.1375    0.0000 C   0  0  2  0  0  0  0  0  0  0  0  0
   12.2528  -11.9625    0.0000 C   0  0  0  0  0  0  0  0  0  0  0  0
   12.9673  -12.3750    0.0000 C   0  0  0  0  0  0  0  0  0  0  0  0
   13.6818  -11.9625    0.0000 C   0  0  0  0  0  0  0  0  0  0  0  0
   11.5384  -10.7250    0.0000 C   0  0  0  0  0  0  0  0  0  0  0  0
   10.8239  -11.1375    0.0000 C   0  0  0  0  0  0  0  0  0  0  0  0
   10.8239  -11.9625    0.0000 C   0  0  0  0  0  0  0  0  0  0  0  0
   11.5384  -12.3750    0.0000 C   0  0  0  0  0  0  0  0  0  0  0  0
   10.0972  -12.3822    0.0000 O   0  0  0  0  0  0  0  0  0  0  0  0
   15.1107   -8.6626    0.0000 O   0  0  0  0  0  0  0  0  0  0  0  0
   11.5384  -13.1999    0.0000 O   0  0  0  0  0  0  0  0  0  0  0  0
   12.2528  -10.3125    0.0000 C   0  0  0  0  0  0  0  0  0  0  0  0
   13.6818  -10.3125    0.0000 H   0  0  0  0  0  0  0  0  0  0  0  0
   14.3963   -9.0750    0.0000 C   0  0  0  0  0  0  0  0  0  0  0  0
   12.9673  -11.5500    0.0000 H   0  0  0  0  0  0  0  0  0  0  0  0
   14.3963  -11.5500    0.0000 H   0  0  0  0  0  0  0  0  0  0  0  0
   10.7269  -13.6684    0.0000 H   0  0  0  0  0  0  0  0  0  0  0  0
  1  2  1  1  0  0  0
  1  5  1  0  0  0  0
  1  6  1  0  0  0  0
  1 23  1  0  0  0  0
  2  3  1  0  0  0  0
  2  9  1  1  0  0  0
  2 25  1  0  0  0  0
  3  4  1  0  0  0  0
  4  5  1  0  0  0  0
  5 19  2  0  0  0  0
  6  7  1  0  0  0  0
  7  8  1  0  0  0  0
  8  9  1  1  0  0  0
  8 24  1  0  0  0  0
  9 22  1  1  0  0  0
 10  8  1  6  0  0  0
 10 11  1  0  0  0  0
 10 14  1  0  0  0  0
 10 21  1  0  0  0  0
 11 12  1  0  0  0  0
 12 13  1  0  0  0  0
 13  9  1  0  0  0  0
 14 15  1  0  0  0  0
 15 16  1  0  0  0  0
 16 17  1  0  0  0  0
 16 18  2  0  0  0  0
 17 11  2  0  0  0  0
 17 20  1  0  0  0  0
 20 26  1  0  0  0  0
M  END
$$$$
O=C1NC(=O)c2c1c(N)ccc2
 OpenBabel07182308452D

 14 15  0  0  0  0  0  0  0  0999 V2000
   15.4857   -9.4819    0.0000 N   0  0  0  0  0  0  0  0  0  0  0  0
   14.9888  -10.1444    0.0000 C   0  0  0  0  0  0  0  0  0  0  0  0
   14.9888   -8.8194    0.0000 C   0  0  0  0  0  0  0  0  0  0  0  0
   14.2021   -9.8959    0.0000 C   0  0  0  0  0  0  0  0  0  0  0  0
   15.2787  -10.9311    0.0000 O   0  0  0  0  0  0  0  0  0  0  0  0
   14.2021   -9.0678    0.0000 C   0  0  0  0  0  0  0  0  0  0  0  0
   15.2372   -8.0327    0.0000 O   0  0  0  0  0  0  0  0  0  0  0  0
   13.4982  -10.3100    0.0000 C   0  0  0  0  0  0  0  0  0  0  0  0
   13.4982   -8.6538    0.0000 C   0  0  0  0  0  0  0  0  0  0  0  0
   12.7943   -9.8959    0.0000 C   0  0  0  0  0  0  0  0  0  0  0  0
   12.7943   -9.0678    0.0000 C   0  0  0  0  0  0  0  0  0  0  0  0
   13.4982   -7.8257    0.0000 N   0  0  0  0  0  0  0  0  0  0  0  0
   14.3508   -7.3335    0.0000 H   0  0  0  0  0  0  0  0  0  0  0  0
   12.6456   -7.3335    0.0000 H   0  0  0  0  0  0  0  0  0  0  0  0
  1  2  1  0  0  0  0
  1  3  1  0  0  0  0
  2  4  1  0  0  0  0
  2  5  2  0  0  0  0
  3  6  1  0  0  0  0
  3  7  2  0  0  0  0
  4  8  1  0  0  0  0
  4  6  2  0  0  0  0
  6  9  1  0  0  0  0
  8 10  2  0  0  0  0
  9 11  2  0  0  0  0
  9 12  1  0  0  0  0
 10 11  1  0  0  0  0
 12 13  1  0  0  0  0
 12 14  1  0  0  0  0
M  END
$$$$
O=c1[nH]c(=O)c2c([nH]1)c(C)c(=O)n(c2N)C
 OpenBabel07182308452D

 17 18  0  0  0  0  0  0  0  0999 V2000
   13.7618  -13.8455    0.0000 C   0  0  0  0  0  0  0  0  0  0  0  0
   13.7618  -14.6820    0.0000 C   0  0  0  0  0  0  0  0  0  0  0  0
   14.4729  -15.1003    0.0000 C   0  0  0  0  0  0  0  0  0  0  0  0
   15.1840  -14.6820    0.0000 N   0  0  0  0  0  0  0  0  0  0  0  0
   15.1840  -13.8455    0.0000 C   0  0  0  0  0  0  0  0  0  0  0  0
   14.4729  -13.4272    0.0000 C   0  0  0  0  0  0  0  0  0  0  0  0
   14.4729  -12.5906    0.0000 C   0  0  0  0  0  0  0  0  0  0  0  0
   13.7618  -12.1723    0.0000 N   0  0  0  0  0  0  0  0  0  0  0  0
   13.0089  -12.5906    0.0000 C   0  0  0  0  0  0  0  0  0  0  0  0
   13.0089  -13.4272    0.0000 N   0  0  0  0  0  0  0  0  0  0  0  0
   15.1840  -12.1723    0.0000 O   0  0  0  0  0  0  0  0  0  0  0  0
   12.2978  -12.1723    0.0000 O   0  0  0  0  0  0  0  0  0  0  0  0
   14.4729  -15.9787    0.0000 O   0  0  0  0  0  0  0  0  0  0  0  0
   15.9369  -15.1422    0.0000 C   0  0  0  0  0  0  0  0  0  0  0  0
   15.9369  -13.4272    0.0000 N   0  0  0  0  0  0  0  0  0  0  0  0
   13.0089  -15.1003    0.0000 C   0  0  0  0  0  0  0  0  0  0  0  0
   15.9490  -12.4428    0.0000 H   0  0  0  0  0  0  0  0  0  0  0  0
  1  2  2  0  0  0  0
  1  6  1  0  0  0  0
  1 10  1  0  0  0  0
  2  3  1  0  0  0  0
  2 16  1  0  0  0  0
  3  4  1  0  0  0  0
  3 13  2  0  0  0  0
  4  5  1  0  0  0  0
  4 14  1  0  0  0  0
  5  6  2  0  0  0  0
  5 15  1  0  0  0  0
  6  7  1  0  0  0  0
  7  8  1  0  0  0  0
  7 11  2  0  0  0  0
  8  9  1  0  0  0  0
  9 10  1  0  0  0  0
  9 12  2  0  0  0  0
 15 17  1  0  0  0  0
M  END
$$$$
[223Ra+2]
 OpenBabel07182308452D

  1  0  0  0  0  0  0  0  0  0999 V2000
   -0.9219   -0.0312    0.0000 Ra  0  2  0  0  0 15  0  0  0  0  0  0
M  ISO  1   1 223
M  CHG  1   1   2
M  END
$$$$
Oc1cc2ncnc(c2cc1N)N
 OpenBabel07182308452D

 15 16  0  0  1  0  0  0  0  0999 V2000
   11.0134  -10.3587    0.0000 C   0  0  0  0  0  0  0  0  0  0  0  0
   11.0134  -11.1952    0.0000 N   0  0  0  0  0  0  0  0  0  0  0  0
   11.7663  -11.6135    0.0000 C   0  0  0  0  0  0  0  0  0  0  0  0
   12.4774  -11.1952    0.0000 C   0  0  0  0  0  0  0  0  0  0  0  0
   12.4774  -10.3587    0.0000 C   0  0  0  0  0  0  0  0  0  0  0  0
   11.7663   -9.9404    0.0000 N   0  0  0  0  0  0  0  0  0  0  0  0
   13.1885  -11.6135    0.0000 C   0  0  0  0  0  0  0  0  0  0  0  0
   13.8995  -11.1952    0.0000 C   0  0  0  0  0  0  0  0  0  0  0  0
   13.8995  -10.3587    0.0000 C   0  0  0  0  0  0  0  0  0  0  0  0
   13.1885   -9.9404    0.0000 C   0  0  0  0  0  0  0  0  0  0  0  0
   11.7663  -12.4500    0.0000 N   0  0  0  0  0  0  0  0  0  0  0  0
   14.6524  -11.8226    0.0000 N   0  0  0  0  0  0  0  0  0  0  0  0
   14.4910   -9.7672    0.0000 O   0  0  0  0  0  0  0  0  0  0  0  0
   10.9117  -12.9388    0.0000 H   0  0  0  0  0  0  0  0  0  0  0  0
   14.5723  -12.8038    0.0000 H   0  0  0  0  0  0  0  0  0  0  0  0
  1  2  1  0  0  0  0
  1  6  2  0  0  0  0
  2  3  2  0  0  0  0
  3  4  1  0  0  0  0
  3 11  1  0  0  0  0
  4  5  1  0  0  0  0
  4  7  2  0  0  0  0
  5  6  1  0  0  0  0
  5 10  2  0  0  0  0
  7  8  1  0  0  0  0
  8  9  2  0  0  0  0
  8 12  1  0  0  0  0
  9 10  1  0  0  0  0
  9 13  1  0  0  0  0
 11 14  1  0  0  0  0
 12 15  1  0  0  0  0
M  END
$$$$
C[C@@H]1CCO[C@@H]2N1C(=O)c1n(C2)ccc(=O)c1O
 OpenBabel07182308452D

 20 22  0  0  0  0  0  0  0  0999 V2000
    2.8452   -0.9219    0.0000 C   0  0  0  0  0  0  0  0  0  0  0  0
    2.8452   -0.0969    0.0000 N   0  0  0  0  0  0  0  0  0  0  0  0
    3.5465    0.3156    0.0000 C   0  0  0  0  0  0  0  0  0  0  0  0
    4.2890   -0.0969    0.0000 C   0  0  0  0  0  0  0  0  0  0  0  0
    4.2890   -0.9219    0.0000 C   0  0  0  0  0  0  0  0  0  0  0  0
    3.5465   -1.3344    0.0000 C   0  0  0  0  0  0  0  0  0  0  0  0
    2.1440   -1.3344    0.0000 C   0  0  0  0  0  0  0  0  0  0  0  0
    1.4015   -0.9219    0.0000 N   0  0  0  0  0  0  0  0  0  0  0  0
    1.4015   -0.0969    0.0000 C   0  0  2  0  0  0  0  0  0  0  0  0
    2.1440    0.3156    0.0000 C   0  0  0  0  0  0  0  0  0  0  0  0
    0.6590   -1.3344    0.0000 C   0  0  1  0  0  0  0  0  0  0  0  0
   -0.0423   -0.9219    0.0000 C   0  0  0  0  0  0  0  0  0  0  0  0
   -0.0423   -0.0969    0.0000 C   0  0  0  0  0  0  0  0  0  0  0  0
    0.6590    0.3156    0.0000 O   0  0  0  0  0  0  0  0  0  0  0  0
    2.1440   -2.1594    0.0000 O   0  0  0  0  0  0  0  0  0  0  0  0
    3.5465   -2.1594    0.0000 O   0  0  0  0  0  0  0  0  0  0  0  0
    4.9902   -1.3344    0.0000 O   0  0  0  0  0  0  0  0  0  0  0  0
    1.4015    0.7281    0.0000 H   0  0  0  0  0  0  0  0  0  0  0  0
    0.6488   -2.1593    0.0000 C   0  0  0  0  0  0  0  0  0  0  0  0
    2.7350   -2.6279    0.0000 H   0  0  0  0  0  0  0  0  0  0  0  0
  1  2  1  0  0  0  0
  1  6  2  0  0  0  0
  1  7  1  0  0  0  0
  2  3  1  0  0  0  0
  2 10  1  0  0  0  0
  3  4  2  0  0  0  0
  4  5  1  0  0  0  0
  5  6  1  0  0  0  0
  5 17  2  0  0  0  0
  6 16  1  0  0  0  0
  7  8  1  0  0  0  0
  7 15  2  0  0  0  0
  8  9  1  0  0  0  0
  8 11  1  0  0  0  0
  9 10  1  0  0  0  0
  9 14  1  0  0  0  0
  9 18  1  6  0  0  0
 11 12  1  0  0  0  0
 11 19  1  6  0  0  0
 12 13  1  0  0  0  0
 13 14  1  0  0  0  0
 16 20  1  0  0  0  0
M  END
$$$$
Fc1ccc(c(c1)F)C
 OpenBabel07182308452D

  9  9  0  0  0  0  0  0  0  0999 V2000
    6.3926    0.3156    0.0000 C   0  0  0  0  0  0  0  0  0  0  0  0
    7.0940   -0.0969    0.0000 C   0  0  0  0  0  0  0  0  0  0  0  0
    7.7952    0.3156    0.0000 C   0  0  0  0  0  0  0  0  0  0  0  0
    8.5376   -0.0969    0.0000 C   0  0  0  0  0  0  0  0  0  0  0  0
    8.5376   -0.9219    0.0000 C   0  0  0  0  0  0  0  0  0  0  0  0
    7.8365   -1.3344    0.0000 C   0  0  0  0  0  0  0  0  0  0  0  0
    7.0940   -0.9219    0.0000 C   0  0  0  0  0  0  0  0  0  0  0  0
    6.3926   -1.3344    0.0000 F   0  0  0  0  0  0  0  0  0  0  0  0
    9.2390   -1.3344    0.0000 F   0  0  0  0  0  0  0  0  0  0  0  0
  1  2  1  0  0  0  0
  2  3  2  0  0  0  0
  2  7  1  0  0  0  0
  3  4  1  0  0  0  0
  4  5  2  0  0  0  0
  5  6  1  0  0  0  0
  5  9  1  0  0  0  0
  6  7  2  0  0  0  0
  7  8  1  0  0  0  0
M  END
$$$$
Nc1ncnc(c1)N
 OpenBabel07182308452D

 12 12  0  0  0  0  0  0  0  0999 V2000
    7.9200   -9.6525    0.0000 N   0  0  0  0  0  0  0  0  0  0  0  0
    7.9200  -10.4775    0.0000 C   0  0  0  0  0  0  0  0  0  0  0  0
    8.6213  -10.8900    0.0000 N   0  0  0  0  0  0  0  0  0  0  0  0
    9.3638  -10.4775    0.0000 C   0  0  0  0  0  0  0  0  0  0  0  0
    9.3638   -9.6525    0.0000 C   0  0  0  0  0  0  0  0  0  0  0  0
    8.6213   -9.2400    0.0000 C   0  0  0  0  0  0  0  0  0  0  0  0
    8.6213   -8.4150    0.0000 N   0  0  0  0  0  0  0  0  0  0  0  0
   10.0649  -10.8900    0.0000 N   0  0  0  0  0  0  0  0  0  0  0  0
    9.4739   -7.9227    0.0000 H   0  0  0  0  0  0  0  0  0  0  0  0
    7.7687   -7.9227    0.0000 H   0  0  0  0  0  0  0  0  0  0  0  0
   10.0568  -11.8745    0.0000 H   0  0  0  0  0  0  0  0  0  0  0  0
   10.9215  -10.4048    0.0000 H   0  0  0  0  0  0  0  0  0  0  0  0
  1  2  1  0  0  0  0
  1  6  2  0  0  0  0
  2  3  2  0  0  0  0
  3  4  1  0  0  0  0
  4  5  2  0  0  0  0
  4  8  1  0  0  0  0
  5  6  1  0  0  0  0
  6  7  1  0  0  0  0
  7  9  1  0  0  0  0
  7 10  1  0  0  0  0
  8 11  1  0  0  0  0
  8 12  1  0  0  0  0
M  END
$$$$
Cn1ncc2c1nccc2
 OpenBabel07182308452D

 10 11  0  0  0  0  0  0  0  0999 V2000
    7.2188  -10.8900    0.0000 C   0  0  0  0  0  0  0  0  0  0  0  0
    5.8988  -10.9313    0.0000 N   0  0  0  0  0  0  0  0  0  0  0  0
    6.1463  -11.6738    0.0000 C   0  0  0  0  0  0  0  0  0  0  0  0
    6.9713  -11.6738    0.0000 C   0  0  0  0  0  0  0  0  0  0  0  0
    6.5588  -10.3950    0.0000 N   0  0  0  0  0  0  0  0  0  0  0  0
    5.7750  -12.4163    0.0000 N   0  0  0  0  0  0  0  0  0  0  0  0
    6.1875  -13.1175    0.0000 C   0  0  0  0  0  0  0  0  0  0  0  0
    7.0125  -13.1175    0.0000 C   0  0  0  0  0  0  0  0  0  0  0  0
    7.4250  -12.3750    0.0000 C   0  0  0  0  0  0  0  0  0  0  0  0
    5.1975  -10.5188    0.0000 C   0  0  0  0  0  0  0  0  0  0  0  0
  1  5  2  0  0  0  0
  2  3  1  0  0  0  0
  2  5  1  0  0  0  0
  3  4  2  0  0  0  0
  3  6  1  0  0  0  0
  4  1  1  0  0  0  0
  4  9  1  0  0  0  0
  6  7  2  0  0  0  0
  7  8  1  0  0  0  0
  8  9  2  0  0  0  0
 10  2  1  0  0  0  0
M  END
$$$$
Oc1ccncn1
 OpenBabel07182308452D

  7  7  0  0  0  0  0  0  0  0999 V2000
   -1.2331    0.8551    0.0000 C   0  0  0  0  0  0  0  0  0  0  0  0
   -1.9476    0.4426    0.0000 N   0  0  0  0  0  0  0  0  0  0  0  0
   -1.9476   -0.3824    0.0000 C   0  0  0  0  0  0  0  0  0  0  0  0
   -1.2331   -0.7949    0.0000 N   0  0  0  0  0  0  0  0  0  0  0  0
   -0.5186   -0.3824    0.0000 C   0  0  0  0  0  0  0  0  0  0  0  0
   -0.5186    0.4426    0.0000 C   0  0  0  0  0  0  0  0  0  0  0  0
    0.1957   -0.7949    0.0000 O   0  0  0  0  0  0  0  0  0  0  0  0
  1  2  1  0  0  0  0
  1  6  2  0  0  0  0
  2  3  2  0  0  0  0
  3  4  1  0  0  0  0
  4  5  2  0  0  0  0
  5  6  1  0  0  0  0
  5  7  1  0  0  0  0
M  END
$$$$
Brc1cncnc1
 OpenBabel07182308452D

  7  7  0  0  0  0  0  0  0  0999 V2000
    3.7681   -0.3823    0.0000 N   0  0  0  0  0  0  0  0  0  0  0  0
    3.0536   -0.7949    0.0000 C   0  0  0  0  0  0  0  0  0  0  0  0
    3.0536   -1.6199    0.0000 N   0  0  0  0  0  0  0  0  0  0  0  0
    3.7681   -2.0324    0.0000 C   0  0  0  0  0  0  0  0  0  0  0  0
    4.4825   -1.6199    0.0000 C   0  0  0  0  0  0  0  0  0  0  0  0
    4.4825   -0.7949    0.0000 C   0  0  0  0  0  0  0  0  0  0  0  0
    5.2362   -1.9554    0.0000 Br  0  0  0  0  0  0  0  0  0  0  0  0
  1  2  1  0  0  0  0
  1  6  2  0  0  0  0
  2  3  2  0  0  0  0
  3  4  1  0  0  0  0
  4  5  2  0  0  0  0
  5  6  1  0  0  0  0
  5  7  1  0  0  0  0
M  END
$$$$
N#CC=C1SCCS1
 OpenBabel07182308452D

  8  8  0  0  0  0  0  0  0  0999 V2000
    0.8352   -1.1623    0.0000 C   0  0  0  0  0  0  0  0  0  0  0  0
    0.1207   -0.7498    0.0000 C   0  0  0  0  0  0  0  0  0  0  0  0
    1.5497   -0.7498    0.0000 C   0  0  0  0  0  0  0  0  0  0  0  0
   -0.7724    0.2421    0.0000 C   0  0  0  0  0  0  0  0  0  0  0  0
    0.0345    0.0706    0.0000 S   0  0  0  0  0  0  0  0  0  0  0  0
   -0.6329   -1.0854    0.0000 S   0  0  0  0  0  0  0  0  0  0  0  0
   -1.1850   -0.4723    0.0000 C   0  0  0  0  0  0  0  0  0  0  0  0
    2.2641   -0.3373    0.0000 N   0  0  0  0  0  0  0  0  0  0  0  0
  1  2  2  0  0  0  0
  1  3  1  0  0  0  0
  2  6  1  0  0  0  0
  3  8  3  0  0  0  0
  4  5  1  0  0  0  0
  4  7  1  0  0  0  0
  5  2  1  0  0  0  0
  6  7  1  0  0  0  0
M  END
$$$$
NP(=O)(O)O
 OpenBabel07182308452D

  6  5  0  0  0  0  0  0  0  0999 V2000
   -1.3972   -0.3252    0.0000 P   0  0  0  0  0  0  0  0  0  0  0  0
   -1.6744   -1.1040    0.0000 O   0  0  0  0  0  0  0  0  0  0  0  0
   -1.1274    0.4547    0.0000 O   0  0  0  0  0  0  0  0  0  0  0  0
   -0.6185   -0.6023    0.0000 O   0  0  0  0  0  0  0  0  0  0  0  0
   -2.1076    0.0942    0.0000 N   0  0  0  0  0  0  0  0  0  0  0  0
   -2.9962   -0.4067    0.0000 H   0  0  0  0  0  0  0  0  0  0  0  0
  1  4  1  0  0  0  0
  1  2  1  0  0  0  0
  1  3  2  0  0  0  0
  1  5  1  0  0  0  0
  5  6  1  0  0  0  0
M  END
$$$$
C[C@H]1OC[C@]([C@@H]1O)(C)F
 OpenBabel07182308452D

 10 10  0  0  0  0  0  0  0  0999 V2000
    0.0074   -0.0645    0.0000 C   0  0  0  0  0  0  0  0  0  0  0  0
    1.4470    0.1005    0.0000 O   0  0  0  0  0  0  0  0  0  0  0  0
    0.7725   -0.3796    0.0000 C   0  0  1  0  0  0  0  0  0  0  0  0
    1.0187   -1.1641    0.0000 C   0  0  2  0  0  0  0  0  0  0  0  0
    1.8461   -1.1742    0.0000 C   0  0  2  0  0  0  0  0  0  0  0  0
    2.1063   -0.3934    0.0000 C   0  0  0  0  0  0  0  0  0  0  0  0
    1.8364   -1.9961    0.0000 F   0  0  0  0  0  0  0  0  0  0  0  0
    2.6670   -1.1326    0.0000 C   0  0  0  0  0  0  0  0  0  0  0  0
    0.5241   -1.8309    0.0000 O   0  0  0  0  0  0  0  0  0  0  0  0
   -0.4395   -1.7200    0.0000 H   0  0  0  0  0  0  0  0  0  0  0  0
  2  3  1  0  0  0  0
  2  6  1  0  0  0  0
  3  4  1  0  0  0  0
  3  1  1  1  0  0  0
  4  5  1  6  0  0  0
  4  9  1  0  0  0  0
  5  7  1  0  0  0  0
  5  8  1  1  0  0  0
  5  6  1  0  0  0  0
  9 10  1  0  0  0  0
M  END
$$$$
Cc1c(I)cc(c(c1I)N)I
 OpenBabel07182308452D

 13 13  0  0  0  0  0  0  0  0999 V2000
   -0.7144    1.2375    0.0000 C   0  0  0  0  0  0  0  0  0  0  0  0
    1.4289    0.8250    0.0000 C   0  0  0  0  0  0  0  0  0  0  0  0
    0.0000    0.8250    0.0000 C   0  0  0  0  0  0  0  0  0  0  0  0
    0.7144    1.2375    0.0000 C   0  0  0  0  0  0  0  0  0  0  0  0
    1.4289    0.0000    0.0000 C   0  0  0  0  0  0  0  0  0  0  0  0
    0.0000    0.0000    0.0000 C   0  0  0  0  0  0  0  0  0  0  0  0
    0.7144   -0.4125    0.0000 C   0  0  0  0  0  0  0  0  0  0  0  0
    0.7144    2.0625    0.0000 I   0  0  0  0  0  0  0  0  0  0  0  0
    2.1434   -0.4125    0.0000 I   0  0  0  0  0  0  0  0  0  0  0  0
   -0.7144   -0.4125    0.0000 I   0  0  0  0  0  0  0  0  0  0  0  0
    0.7144   -1.2375    0.0000 N   0  0  0  0  0  0  0  0  0  0  0  0
   -0.1382   -1.7298    0.0000 H   0  0  0  0  0  0  0  0  0  0  0  0
    1.5670   -1.7298    0.0000 H   0  0  0  0  0  0  0  0  0  0  0  0
  3  1  1  0  0  0  0
  4  2  2  0  0  0  0
  4  3  1  0  0  0  0
  5  2  1  0  0  0  0
  6  3  2  0  0  0  0
  7  5  2  0  0  0  0
  7  6  1  0  0  0  0
  8  4  1  0  0  0  0
  9  5  1  0  0  0  0
 10  6  1  0  0  0  0
 11  7  1  0  0  0  0
 11 12  1  0  0  0  0
 11 13  1  0  0  0  0
M  END
$$$$
O[C@@H]1[C@H](O)[C@H](O)[C@H]([C@@H]([C@H]1O)O)O
 OpenBabel07182308452D

 12 12  0  0  0  0  0  0  0  0999 V2000
    0.7144   -0.4125    0.0000 C   0  0  1  0  0  0  0  0  0  0  0  0
    0.0000   -0.8250    0.0000 C   0  0  1  0  0  0  0  0  0  0  0  0
   -0.7145   -0.4125    0.0000 C   0  0  2  0  0  0  0  0  0  0  0  0
   -0.7145    0.4125    0.0000 C   0  0  1  0  0  0  0  0  0  0  0  0
    0.0000    0.8249    0.0000 C   0  0  2  0  0  0  0  0  0  0  0  0
    0.7144    0.4125    0.0000 C   0  0  1  0  0  0  0  0  0  0  0  0
    0.0000    1.6500    0.0000 O   0  0  0  0  0  0  0  0  0  0  0  0
    1.4289    0.8249    0.0000 O   0  0  0  0  0  0  0  0  0  0  0  0
    0.0000   -1.6500    0.0000 O   0  0  0  0  0  0  0  0  0  0  0  0
   -1.4289   -0.8250    0.0000 O   0  0  0  0  0  0  0  0  0  0  0  0
    1.4289   -0.8250    0.0000 O   0  0  0  0  0  0  0  0  0  0  0  0
   -1.4289    0.8249    0.0000 O   0  0  0  0  0  0  0  0  0  0  0  0
  1  2  1  0  0  0  0
  1  6  1  0  0  0  0
  1 11  1  1  0  0  0
  2  3  1  0  0  0  0
  2  9  1  6  0  0  0
  3  4  1  0  0  0  0
  3 10  1  1  0  0  0
  4  5  1  0  0  0  0
  4 12  1  6  0  0  0
  5  6  1  0  0  0  0
  5  7  1  1  0  0  0
  6  8  1  1  0  0  0
M  END
$$$$
CN1CN(C)CC(C1)(C)N
 OpenBabel07182308452D

 12 12  0  0  0  0  0  0  0  0999 V2000
    8.8558    4.0752    0.0000 C   0  0  0  0  0  0  0  0  0  0  0  0
    7.8591    1.2375    0.0000 C   0  0  0  0  0  0  0  0  0  0  0  0
    6.4302    3.7125    0.0000 C   0  0  0  0  0  0  0  0  0  0  0  0
    8.5736    2.4750    0.0000 C   0  0  0  0  0  0  0  0  0  0  0  0
    7.8591    3.7125    0.0000 C   0  0  0  0  0  0  0  0  0  0  0  0
    7.1447    2.4750    0.0000 C   0  0  0  0  0  0  0  0  0  0  0  0
    8.5736    3.3000    0.0000 C   0  0  0  0  0  0  0  0  0  0  0  0
    9.3861    3.1567    0.0000 N   0  0  0  0  0  0  0  0  0  0  0  0
    7.8591    2.0625    0.0000 N   0  0  0  0  0  0  0  0  0  0  0  0
    7.1447    3.3000    0.0000 N   0  0  0  0  0  0  0  0  0  0  0  0
    9.7349    2.1982    0.0000 H   0  0  0  0  0  0  0  0  0  0  0  0
   10.0418    3.9380    0.0000 H   0  0  0  0  0  0  0  0  0  0  0  0
  7  1  1  0  0  0  0
  7  4  1  0  0  0  0
  7  5  1  0  0  0  0
  8  7  1  0  0  0  0
  8 11  1  0  0  0  0
  8 12  1  0  0  0  0
  9  2  1  0  0  0  0
  9  4  1  0  0  0  0
  9  6  1  0  0  0  0
 10  3  1  0  0  0  0
 10  5  1  0  0  0  0
 10  6  1  0  0  0  0
M  END
$$$$
O=C1OCC(=O)N(C)CC(=O)OCC(=O)N(CC(=O)OCC(=O)N(C1)C)C
 OpenBabel07182308452D

 33 33  0  0  0  0  0  0  0  0999 V2000
    0.4125    0.7145    0.0000 C   0  0  0  0  0  0  0  0  0  0  0  0
    0.4125   -0.7144    0.0000 C   0  0  0  0  0  0  0  0  0  0  0  0
   -0.8249    0.0000    0.0000 C   0  0  0  0  0  0  0  0  0  0  0  0
    1.6500    1.4289    0.0000 C   0  0  0  0  0  0  0  0  0  0  0  0
   -2.0624    0.7145    0.0000 C   0  0  0  0  0  0  0  0  0  0  0  0
    0.4125   -2.1433    0.0000 C   0  0  0  0  0  0  0  0  0  0  0  0
   -0.4124    2.1434    0.0000 C   0  0  0  0  0  0  0  0  0  0  0  0
    2.0625   -0.7144    0.0000 C   0  0  0  0  0  0  0  0  0  0  0  0
   -1.6499   -1.4289    0.0000 C   0  0  0  0  0  0  0  0  0  0  0  0
    0.4125    2.1434    0.0000 C   0  0  0  0  0  0  0  0  0  0  0  0
    1.6500   -1.4289    0.0000 C   0  0  0  0  0  0  0  0  0  0  0  0
   -2.0624   -0.7144    0.0000 C   0  0  0  0  0  0  0  0  0  0  0  0
    2.0625    0.7145    0.0000 C   0  0  0  0  0  0  0  0  0  0  0  0
   -1.6499    1.4289    0.0000 C   0  0  0  0  0  0  0  0  0  0  0  0
   -0.4124   -2.1433    0.0000 C   0  0  0  0  0  0  0  0  0  0  0  0
    0.8250    1.4289    0.0000 N   0  0  0  0  0  0  0  0  0  0  0  0
    0.8250   -1.4289    0.0000 N   0  0  0  0  0  0  0  0  0  0  0  0
   -1.6499    0.0000    0.0000 N   0  0  0  0  0  0  0  0  0  0  0  0
    0.8250    2.8579    0.0000 O   0  0  0  0  0  0  0  0  0  0  0  0
    2.0625   -2.1433    0.0000 O   0  0  0  0  0  0  0  0  0  0  0  0
   -2.8874   -0.7144    0.0000 O   0  0  0  0  0  0  0  0  0  0  0  0
    2.8875    0.7145    0.0000 O   0  0  0  0  0  0  0  0  0  0  0  0
   -2.0624    2.1434    0.0000 O   0  0  0  0  0  0  0  0  0  0  0  0
   -0.8249   -2.8578    0.0000 O   0  0  0  0  0  0  0  0  0  0  0  0
    1.6500    0.0000    0.0000 O   0  0  0  0  0  0  0  0  0  0  0  0
   -0.8249    1.4289    0.0000 O   0  0  0  0  0  0  0  0  0  0  0  0
   -0.8249   -1.4289    0.0000 O   0  0  0  0  0  0  0  0  0  0  0  0
    2.4750    1.4289    0.0000 H   0  0  0  0  0  0  0  0  0  0  0  0
   -2.4749    0.0000    0.0000 H   0  0  0  0  0  0  0  0  0  0  0  0
    1.2375   -2.1433    0.0000 H   0  0  0  0  0  0  0  0  0  0  0  0
   -1.2374    2.1434    0.0000 H   0  0  0  0  0  0  0  0  0  0  0  0
    2.4750    0.0000    0.0000 H   0  0  0  0  0  0  0  0  0  0  0  0
   -1.2527   -2.0819    0.0000 H   0  0  0  0  0  0  0  0  0  0  0  0
  4 28  1  0  0  0  0
  5 29  1  0  0  0  0
  6 30  1  0  0  0  0
 10  7  1  0  0  0  0
 11  8  1  0  0  0  0
 12  9  1  0  0  0  0
 13  4  1  0  0  0  0
 14  5  1  0  0  0  0
 15  6  1  0  0  0  0
 16  1  1  0  0  0  0
 16  4  1  0  0  0  0
 16 10  1  0  0  0  0
 17  2  1  0  0  0  0
 17  6  1  0  0  0  0
 17 11  1  0  0  0  0
 18  3  1  0  0  0  0
 18  5  1  0  0  0  0
 18 12  1  0  0  0  0
 19 10  2  0  0  0  0
 20 11  2  0  0  0  0
 21 12  2  0  0  0  0
 22 13  2  0  0  0  0
 23 14  2  0  0  0  0
 24 15  2  0  0  0  0
 25  8  1  0  0  0  0
 25 13  1  0  0  0  0
 26  7  1  0  0  0  0
 26 14  1  0  0  0  0
 27  9  1  0  0  0  0
 27 15  1  0  0  0  0
 31  7  1  0  0  0  0
 32  8  1  0  0  0  0
 33  9  1  0  0  0  0
M  END
$$$$
C/C(=C(\N)/C)/S
 OpenBabel07182308452D

  6  5  0  0  0  0  0  0  0  0999 V2000
   -1.0223   -0.0033    0.0000 N   0  0  0  0  0  0  0  0  0  0  0  0
   -0.3051   -0.4102    0.0000 C   0  0  0  0  0  0  0  0  0  0  0  0
    0.4051    0.0068    0.0000 C   0  0  0  0  0  0  0  0  0  0  0  0
   -0.3016   -1.2378    0.0000 C   0  0  0  0  0  0  0  0  0  0  0  0
    1.1223   -0.4033    0.0000 S   0  0  0  0  0  0  0  0  0  0  0  0
    0.4017    0.8309    0.0000 C   0  0  0  0  0  0  0  0  0  0  0  0
  1  2  1  0  0  0  0
  2  3  2  0  0  0  0
  2  4  1  0  0  0  0
  3  5  1  0  0  0  0
  3  6  1  0  0  0  0
M  END
$$$$
c1ccc2c(c1)Sc1c(N2)cccc1
 OpenBabel07182308452D

 14 16  0  0  0  0  0  0  0  0999 V2000
    5.0013    1.2375    0.0000 C   0  0  0  0  0  0  0  0  0  0  0  0
    5.0013    2.0625    0.0000 C   0  0  0  0  0  0  0  0  0  0  0  0
    4.2868    0.8250    0.0000 C   0  0  0  0  0  0  0  0  0  0  0  0
    4.2868    2.4750    0.0000 C   0  0  0  0  0  0  0  0  0  0  0  0
    0.7145    2.0625    0.0000 C   0  0  0  0  0  0  0  0  0  0  0  0
    1.4289    2.4750    0.0000 C   0  0  0  0  0  0  0  0  0  0  0  0
    1.4289    0.8250    0.0000 C   0  0  0  0  0  0  0  0  0  0  0  0
    0.7145    1.2375    0.0000 C   0  0  0  0  0  0  0  0  0  0  0  0
    3.5724    1.2375    0.0000 C   0  0  0  0  0  0  0  0  0  0  0  0
    2.1434    1.2375    0.0000 C   0  0  0  0  0  0  0  0  0  0  0  0
    3.5724    2.0625    0.0000 C   0  0  0  0  0  0  0  0  0  0  0  0
    2.1434    2.0625    0.0000 C   0  0  0  0  0  0  0  0  0  0  0  0
    2.8579    0.8250    0.0000 N   0  0  0  0  0  0  0  0  0  0  0  0
    2.8579    2.4750    0.0000 S   0  0  0  0  0  0  0  0  0  0  0  0
  2  1  2  0  0  0  0
  3  1  1  0  0  0  0
  4  2  1  0  0  0  0
  6  5  2  0  0  0  0
  8  5  1  0  0  0  0
  8  7  2  0  0  0  0
  9  3  2  0  0  0  0
 10  7  1  0  0  0  0
 11  4  2  0  0  0  0
 11  9  1  0  0  0  0
 12  6  1  0  0  0  0
 12 10  2  0  0  0  0
 13  9  1  0  0  0  0
 13 10  1  0  0  0  0
 14 11  1  0  0  0  0
 14 12  1  0  0  0  0
M  END
$$$$
C[C@@H]1C[C@@H]2[C@](C1)(C)C[C@@H]([C@H]1[C@H]2C[C@H](F)C2=CC(=O)C=C[C@]12C)O
 OpenBabel07182308452D

 27 30  0  0  0  0  0  0  0  0999 V2000
    1.0688    1.6596    0.0000 C   0  0  0  0  0  0  0  0  0  0  0  0
    1.0688    0.8345    0.0000 C   0  0  2  0  0  0  0  0  0  0  0  0
    1.0688    0.0009    0.0000 C   0  0  2  0  0  0  0  0  0  0  0  0
    1.7813    1.2500    0.0000 C   0  0  0  0  0  0  0  0  0  0  0  0
    0.3563    1.2500    0.0000 C   0  0  0  0  0  0  0  0  0  0  0  0
    0.3563   -0.4146    0.0000 C   0  0  1  0  0  0  0  0  0  0  0  0
    2.4940    0.0009    0.0000 C   0  0  0  0  0  0  0  0  0  0  0  0
    2.4940    0.8345    0.0000 C   0  0  1  0  0  0  0  0  0  0  0  0
   -0.3584    0.8345    0.0000 C   0  0  1  0  0  0  0  0  0  0  0  0
   -0.3584    0.0009    0.0000 C   0  0  2  0  0  0  0  0  0  0  0  0
    0.3563   -1.2459    0.0000 C   0  0  0  0  0  0  0  0  0  0  0  0
    3.2085    1.2459    0.0000 C   0  0  0  0  0  0  0  0  0  0  0  0
   -1.0729    1.2459    0.0000 O   0  0  0  0  0  0  0  0  0  0  0  0
   -1.0709   -0.4146    0.0000 C   0  0  2  0  0  0  0  0  0  0  0  0
   -0.3584   -1.6616    0.0000 C   0  0  1  0  0  0  0  0  0  0  0  0
   -1.0709    0.4105    0.0000 C   0  0  0  0  0  0  0  0  0  0  0  0
   -1.0709   -1.2459    0.0000 C   0  0  0  0  0  0  0  0  0  0  0  0
   -1.7834    0.0009    0.0000 C   0  0  0  0  0  0  0  0  0  0  0  0
   -0.3584   -2.4868    0.0000 F   0  0  0  0  0  0  0  0  0  0  0  0
   -1.7834   -1.6616    0.0000 C   0  0  0  0  0  0  0  0  0  0  0  0
   -2.4960   -0.4146    0.0000 C   0  0  0  0  0  0  0  0  0  0  0  0
   -2.4960   -1.2459    0.0000 C   0  0  0  0  0  0  0  0  0  0  0  0
   -3.2106   -1.6574    0.0000 O   0  0  0  0  0  0  0  0  0  0  0  0
    0.3563    0.4105    0.0000 H   0  0  0  0  0  0  0  0  0  0  0  0
   -0.3584   -0.8240    0.0000 H   0  0  0  0  0  0  0  0  0  0  0  0
    1.0688   -0.8240    0.0000 H   0  0  0  0  0  0  0  0  0  0  0  0
   -1.0740    2.2159    0.0000 H   0  0  0  0  0  0  0  0  0  0  0  0
  2  1  1  0  0  0  0
  2  3  1  1  0  0  0
  2  4  1  0  0  0  0
  2  5  1  0  0  0  0
  3  6  1  1  0  0  0
  3  7  1  0  0  0  0
  3 26  1  0  0  0  0
  4  8  1  0  0  0  0
  6 10  1  6  0  0  0
  6 11  1  0  0  0  0
  6 24  1  0  0  0  0
  8  7  1  0  0  0  0
  8 12  1  6  0  0  0
  9  5  1  0  0  0  0
  9 10  1  1  0  0  0
  9 13  1  0  0  0  0
 10 14  1  1  0  0  0
 10 25  1  0  0  0  0
 13 27  1  0  0  0  0
 14 16  1  1  0  0  0
 14 17  1  0  0  0  0
 14 18  1  0  0  0  0
 15 11  1  0  0  0  0
 15 17  1  0  0  0  0
 15 19  1  6  0  0  0
 17 20  2  0  0  0  0
 18 21  2  0  0  0  0
 20 22  1  0  0  0  0
 21 22  1  0  0  0  0
 22 23  2  0  0  0  0
M  END
$$$$
O=C1C=C[C@]2(C(=C1)[C@@H](F)C[C@@H]1[C@]2(Cl)[C@@H](Cl)C[C@]2([C@H]1C[C@@H]1C2OC(O1)(C)C)C)C
 OpenBabel07182308452D

 31 35  0  0  0  0  0  0  0  0999 V2000
   -2.9056   -2.0855    0.0000 C   0  0  0  0  0  0  0  0  0  0  0  0
   -2.7424   -1.2786    0.0000 C   0  0  0  0  0  0  0  0  0  0  0  0
   -2.7523   -0.4550    0.0000 O   0  0  0  0  0  0  0  0  0  0  0  0
   -1.9679   -0.1956    0.0000 C   0  0  2  0  0  0  0  0  0  0  0  0
   -1.4875    0.4798    0.0000 C   0  0  0  0  0  0  0  0  0  0  0  0
   -0.7049    0.2347    0.0000 C   0  0  1  0  0  0  0  0  0  0  0  0
    0.0066    0.6515    0.0000 C   0  0  2  0  0  0  0  0  0  0  0  0
   -0.0032    1.4753    0.0000 C   0  0  0  0  0  0  0  0  0  0  0  0
    0.7040    1.8964    0.0000 C   0  0  1  0  0  0  0  0  0  0  0  0
    1.4257    1.4894    0.0000 C   0  0  0  0  0  0  0  0  0  0  0  0
    2.1331    1.9107    0.0000 C   0  0  0  0  0  0  0  0  0  0  0  0
    2.8548    1.5039    0.0000 C   0  0  0  0  0  0  0  0  0  0  0  0
    3.5665    1.9250    0.0000 O   0  0  0  0  0  0  0  0  0  0  0  0
    2.8612    0.6822    0.0000 C   0  0  0  0  0  0  0  0  0  0  0  0
    2.1537    0.2610    0.0000 C   0  0  0  0  0  0  0  0  0  0  0  0
    1.4322    0.6637    0.0000 C   0  0  2  0  0  0  0  0  0  0  0  0
    0.7203    0.2468    0.0000 C   0  0  1  0  0  0  0  0  0  0  0  0
    0.7347   -0.5768    0.0000 C   0  0  2  0  0  0  0  0  0  0  0  0
    0.0230   -0.9938    0.0000 C   0  0  0  0  0  0  0  0  0  0  0  0
   -0.6986   -0.5911    0.0000 C   0  0  2  0  0  0  0  0  0  0  0  0
   -1.4788   -0.8545    0.0000 C   0  0  3  0  0  0  0  0  0  0  0  0
   -1.9554   -1.5236    0.0000 O   0  0  0  0  0  0  0  0  0  0  0  0
   -0.6269   -1.4151    0.0000 C   0  0  0  0  0  0  0  0  0  0  0  0
    1.2647   -1.2047    0.0000 Cl  0  0  0  0  0  0  0  0  0  0  0  0
    1.8773   -0.4012    0.0000 Cl  0  0  0  0  0  0  0  0  0  0  0  0
    0.6976    2.7224    0.0000 F   0  0  0  0  0  0  0  0  0  0  0  0
   -3.5665   -1.2025    0.0000 C   0  0  0  0  0  0  0  0  0  0  0  0
    0.6781    1.1010    0.0000 C   0  0  0  0  0  0  0  0  0  0  0  0
   -0.7130    1.0882    0.0000 H   0  0  0  0  0  0  0  0  0  0  0  0
   -2.5765    0.4096    0.0000 H   0  0  0  0  0  0  0  0  0  0  0  0
   -0.0002   -0.1956    0.0000 H   0  0  0  0  0  0  0  0  0  0  0  0
  1  2  1  0  0  0  0
  2 22  1  0  0  0  0
  2 27  1  0  0  0  0
  2  3  1  0  0  0  0
  4  5  1  0  0  0  0
  4 21  1  0  0  0  0
  4 30  1  1  0  0  0
  4  3  1  0  0  0  0
  6  5  1  0  0  0  0
  6  7  1  1  0  0  0
  6 29  1  0  0  0  0
  7  8  1  0  0  0  0
  7 17  1  6  0  0  0
  7 31  1  0  0  0  0
  8  9  1  0  0  0  0
  9 10  1  0  0  0  0
  9 26  1  6  0  0  0
 10 11  2  0  0  0  0
 10 16  1  0  0  0  0
 11 12  1  0  0  0  0
 12 13  2  0  0  0  0
 12 14  1  0  0  0  0
 14 15  2  0  0  0  0
 15 16  1  0  0  0  0
 16 17  1  6  0  0  0
 16 28  1  0  0  0  0
 17 25  1  6  0  0  0
 18 17  1  1  0  0  0
 18 19  1  0  0  0  0
 18 24  1  0  0  0  0
 19 20  1  0  0  0  0
 20  6  1  1  0  0  0
 20 21  1  0  0  0  0
 20 23  1  0  0  0  0
 21 22  1  0  0  0  0
M  END
$$$$
Nc1cscc1C
 OpenBabel07182308452D

  8  8  0  0  0  0  0  0  0  0999 V2000
   -1.1112    1.0093    0.0000 C   0  0  0  0  0  0  0  0  0  0  0  0
   -1.3684    0.2232    0.0000 C   0  0  0  0  0  0  0  0  0  0  0  0
   -1.7760    1.4946    0.0000 S   0  0  0  0  0  0  0  0  0  0  0  0
   -0.6551   -0.1844    0.0000 N   0  0  0  0  0  0  0  0  0  0  0  0
   -2.1932    0.2232    0.0000 C   0  0  0  0  0  0  0  0  0  0  0  0
   -2.4456    1.0093    0.0000 C   0  0  0  0  0  0  0  0  0  0  0  0
   -2.9115   -0.1844    0.0000 C   0  0  0  0  0  0  0  0  0  0  0  0
    0.1979    0.3072    0.0000 H   0  0  0  0  0  0  0  0  0  0  0  0
  2  1  2  0  0  0  0
  3  1  1  0  0  0  0
  4  2  1  0  0  0  0
  4  8  1  0  0  0  0
  5  2  1  0  0  0  0
  5  6  2  0  0  0  0
  6  3  1  0  0  0  0
  7  5  1  0  0  0  0
M  END
$$$$
O=C1CC[C@]2(C(=C1)C=C[C@@H]1[C@@H]2CC[C@]2([C@H]1CC[C@]2(C)O)C)C
 OpenBabel07182308452D

 26 29  0  0  0  0  0  0  0  0999 V2000
    3.2547   -0.1813    0.0000 O   0  0  0  0  0  0  0  0  0  0  0  0
   -3.2546   -1.1710    0.0000 O   0  0  0  0  0  0  0  0  0  0  0  0
    1.6179   -0.2997    0.0000 C   0  0  1  0  0  0  0  0  0  0  0  0
    1.3377   -1.0756    0.0000 C   0  0  2  0  0  0  0  0  0  0  0  0
    2.4426   -0.3265    0.0000 C   0  0  2  0  0  0  0  0  0  0  0  0
    0.5256   -1.2208    0.0000 C   0  0  1  0  0  0  0  0  0  0  0  0
   -0.0062   -0.5901    0.0000 C   0  0  1  0  0  0  0  0  0  0  0  0
   -0.8184   -0.7353    0.0000 C   0  0  2  0  0  0  0  0  0  0  0  0
    1.0862    0.3309    0.0000 C   0  0  0  0  0  0  0  0  0  0  0  0
    1.9890   -1.5820    0.0000 C   0  0  0  0  0  0  0  0  0  0  0  0
    2.6719   -1.1190    0.0000 C   0  0  0  0  0  0  0  0  0  0  0  0
   -1.0986   -1.5112    0.0000 C   0  0  0  0  0  0  0  0  0  0  0  0
    0.2740    0.1857    0.0000 C   0  0  0  0  0  0  0  0  0  0  0  0
    0.2452   -1.9967    0.0000 C   0  0  0  0  0  0  0  0  0  0  0  0
    2.3830    0.4963    0.0000 C   0  0  0  0  0  0  0  0  0  0  0  0
    1.9779    0.4426    0.0000 C   0  0  0  0  0  0  0  0  0  0  0  0
   -0.5668   -2.1420    0.0000 C   0  0  0  0  0  0  0  0  0  0  0  0
   -1.3501   -0.1046    0.0000 C   0  0  0  0  0  0  0  0  0  0  0  0
   -1.9108   -1.6565    0.0000 C   0  0  0  0  0  0  0  0  0  0  0  0
   -0.5380    0.0405    0.0000 C   0  0  0  0  0  0  0  0  0  0  0  0
   -2.4425   -1.0258    0.0000 C   0  0  0  0  0  0  0  0  0  0  0  0
   -2.1622   -0.2498    0.0000 C   0  0  0  0  0  0  0  0  0  0  0  0
   -0.6508    0.1743    0.0000 H   0  0  0  0  0  0  0  0  0  0  0  0
    1.1701   -1.9853    0.0000 H   0  0  0  0  0  0  0  0  0  0  0  0
    1.0981   -2.0465    0.0000 H   0  0  0  0  0  0  0  0  0  0  0  0
    3.8800   -0.9229    0.0000 H   0  0  0  0  0  0  0  0  0  0  0  0
  1 26  1  0  0  0  0
  2 21  2  0  0  0  0
  3  4  1  1  0  0  0
  3  9  1  0  0  0  0
  3 16  1  0  0  0  0
  4  6  1  1  0  0  0
  4 10  1  0  0  0  0
  4 25  1  0  0  0  0
  5  1  1  0  0  0  0
  5  3  1  1  0  0  0
  5 11  1  0  0  0  0
  5 15  1  0  0  0  0
  6  7  1  1  0  0  0
  6 14  1  0  0  0  0
  6 24  1  0  0  0  0
  7  8  1  1  0  0  0
  7 13  1  0  0  0  0
  7 23  1  0  0  0  0
  8 12  1  0  0  0  0
  8 18  1  0  0  0  0
  8 20  1  1  0  0  0
  9 13  1  0  0  0  0
 10 11  1  0  0  0  0
 12 17  1  0  0  0  0
 12 19  2  0  0  0  0
 14 17  2  0  0  0  0
 18 22  1  0  0  0  0
 19 21  1  0  0  0  0
 21 22  1  0  0  0  0
M  END
$$$$
FC1(F)c2ccccc2c2c1cccc2
 OpenBabel07182308452D

 15 17  0  0  0  0  0  0  0  0999 V2000
   -1.1552    0.0000    0.0000 C   0  0  0  0  0  0  0  0  0  0  0  0
   -0.9076   -0.8252    0.0000 C   0  0  0  0  0  0  0  0  0  0  0  0
   -0.0824   -0.8252    0.0000 C   0  0  0  0  0  0  0  0  0  0  0  0
    0.1650   -0.0412    0.0000 C   0  0  0  0  0  0  0  0  0  0  0  0
   -0.4950    0.4538    0.0000 C   0  0  0  0  0  0  0  0  0  0  0  0
    0.4126   -1.4442    0.0000 C   0  0  0  0  0  0  0  0  0  0  0  0
    1.2378   -1.3203    0.0000 C   0  0  0  0  0  0  0  0  0  0  0  0
    1.5266   -0.5364    0.0000 C   0  0  0  0  0  0  0  0  0  0  0  0
    0.9902    0.0825    0.0000 C   0  0  0  0  0  0  0  0  0  0  0  0
   -1.9804    0.1650    0.0000 C   0  0  0  0  0  0  0  0  0  0  0  0
   -2.5169   -0.4126    0.0000 C   0  0  0  0  0  0  0  0  0  0  0  0
   -2.3105   -1.1966    0.0000 C   0  0  0  0  0  0  0  0  0  0  0  0
   -1.4853   -1.4028    0.0000 C   0  0  0  0  0  0  0  0  0  0  0  0
    0.1237    1.0315    0.0000 F   0  0  0  0  0  0  0  0  0  0  0  0
   -1.0727    1.0315    0.0000 F   0  0  0  0  0  0  0  0  0  0  0  0
  1  2  1  0  0  0  0
  1  5  1  0  0  0  0
  1 10  2  0  0  0  0
  2  3  1  0  0  0  0
  2 13  2  0  0  0  0
  3  4  1  0  0  0  0
  3  6  2  0  0  0  0
  4  5  1  0  0  0  0
  4  9  2  0  0  0  0
  5 14  1  0  0  0  0
  5 15  1  0  0  0  0
  6  7  1  0  0  0  0
  7  8  2  0  0  0  0
  8  9  1  0  0  0  0
 10 11  1  0  0  0  0
 11 12  2  0  0  0  0
 12 13  1  0  0  0  0
M  END
$$$$
C1C[C@H]2C[C@@H]1NC2
 OpenBabel07182308452D

  7  8  0  0  0  0  0  0  0  0999 V2000
    5.7352    0.2888    0.0000 C   0  0  0  0  0  0  0  0  0  0  0  0
    6.1478   -0.4126    0.0000 C   0  0  1  0  0  0  0  0  0  0  0  0
    6.9730   -0.4126    0.0000 C   0  0  0  0  0  0  0  0  0  0  0  0
    7.3856    0.2888    0.0000 C   0  0  0  0  0  0  0  0  0  0  0  0
    6.9730    0.9902    0.0000 C   0  0  1  0  0  0  0  0  0  0  0  0
    6.1478    0.9902    0.0000 N   0  0  0  0  0  0  0  0  0  0  0  0
    6.2717    0.4538    0.0000 C   0  0  0  0  0  0  0  0  0  0  0  0
  1  6  1  0  0  0  0
  2  1  1  6  0  0  0
  2  3  1  0  0  0  0
  2  7  1  0  0  0  0
  3  4  1  0  0  0  0
  5  4  1  6  0  0  0
  5  6  1  0  0  0  0
  5  7  1  0  0  0  0
M  END
$$$$
C1NCC2(C1)CC2
 OpenBabel07182308452D

  7  8  0  0  0  0  0  0  0  0999 V2000
   -5.4051   -0.4126    0.0000 C   0  0  0  0  0  0  0  0  0  0  0  0
   -6.1891   -0.1237    0.0000 C   0  0  0  0  0  0  0  0  0  0  0  0
   -6.6842   -0.7840    0.0000 C   0  0  0  0  0  0  0  0  0  0  0  0
   -6.1891   -1.4853    0.0000 C   0  0  0  0  0  0  0  0  0  0  0  0
   -5.4051   -1.2378    0.0000 N   0  0  0  0  0  0  0  0  0  0  0  0
   -7.3856   -1.2378    0.0000 C   0  0  0  0  0  0  0  0  0  0  0  0
   -7.3856   -0.4126    0.0000 C   0  0  0  0  0  0  0  0  0  0  0  0
  1  2  1  0  0  0  0
  1  5  1  0  0  0  0
  2  3  1  0  0  0  0
  3  4  1  0  0  0  0
  3  7  1  0  0  0  0
  4  5  1  0  0  0  0
  6  3  1  0  0  0  0
  7  6  1  0  0  0  0
M  END
$$$$
N[C@@H]1CC[C@@H]2[C@@H](C1)C[C@@H]1[C@H](C2)[C@H](OC1=O)C
 OpenBabel07182308452D

 21 23  0  0  0  0  0  0  0  0999 V2000
   -2.5769   -2.4043    0.0000 C   0  0  2  0  0  0  0  0  0  0  0  0
   -2.5769   -3.2408    0.0000 C   0  0  1  0  0  0  0  0  0  0  0  0
   -1.8658   -3.6591    0.0000 C   0  0  0  0  0  0  0  0  0  0  0  0
   -1.1131   -3.2408    0.0000 C   0  0  1  0  0  0  0  0  0  0  0  0
   -1.1131   -2.4043    0.0000 C   0  0  2  0  0  0  0  0  0  0  0  0
   -1.8658   -1.9860    0.0000 C   0  0  0  0  0  0  0  0  0  0  0  0
   -0.4019   -3.6591    0.0000 C   0  0  0  0  0  0  0  0  0  0  0  0
    0.3090   -3.2408    0.0000 C   0  0  1  0  0  0  0  0  0  0  0  0
    0.3090   -2.4043    0.0000 C   0  0  0  0  0  0  0  0  0  0  0  0
   -0.4019   -1.9860    0.0000 C   0  0  0  0  0  0  0  0  0  0  0  0
   -2.5769   -1.5677    0.0000 H   0  0  0  0  0  0  0  0  0  0  0  0
   -2.5769   -4.0773    0.0000 H   0  0  0  0  0  0  0  0  0  0  0  0
   -1.1131   -4.0773    0.0000 H   0  0  0  0  0  0  0  0  0  0  0  0
   -1.1131   -1.5677    0.0000 H   0  0  0  0  0  0  0  0  0  0  0  0
    1.0201   -3.6591    0.0000 N   0  0  0  0  0  0  0  0  0  0  0  0
   -3.3725   -2.1458    0.0000 C   0  0  2  0  0  0  0  0  0  0  0  0
   -3.8642   -2.8225    0.0000 O   0  0  0  0  0  0  0  0  0  0  0  0
   -3.3725   -3.4993    0.0000 C   0  0  0  0  0  0  0  0  0  0  0  0
   -3.6288   -1.3573    0.0000 C   0  0  0  0  0  0  0  0  0  0  0  0
   -3.6288   -4.2877    0.0000 O   0  0  0  0  0  0  0  0  0  0  0  0
    1.0201   -4.6436    0.0000 H   0  0  0  0  0  0  0  0  0  0  0  0
  1  2  1  6  0  0  0
  1  6  1  0  0  0  0
  1 11  1  0  0  0  0
  2  3  1  0  0  0  0
  2 12  1  6  0  0  0
  2 18  1  0  0  0  0
  3  4  1  0  0  0  0
  4  5  1  6  0  0  0
  4  7  1  0  0  0  0
  4 13  1  0  0  0  0
  5  6  1  0  0  0  0
  5 10  1  0  0  0  0
  5 14  1  1  0  0  0
  7  8  1  0  0  0  0
  8  9  1  0  0  0  0
  8 15  1  1  0  0  0
  9 10  1  0  0  0  0
 15 21  1  0  0  0  0
 16  1  1  6  0  0  0
 16 17  1  0  0  0  0
 16 19  1  0  0  0  0
 17 18  1  0  0  0  0
 18 20  2  0  0  0  0
M  END
$$$$
[O-]P=O
 OpenBabel07182308452D

  3  2  0  0  0  0  0  0  0  0999 V2000
    1.4088   -0.3981    0.0000 P   0  0  0  0  0  0  0  0  0  0  0  0
    1.4128   -1.2231    0.0000 O   0  0  0  0  0  0  0  0  0  0  0  0
    1.4088    0.4269    0.0000 O   0  5  0  0  0  0  0  0  0  0  0  0
  1  2  2  0  0  0  0
  1  3  1  0  0  0  0
M  CHG  1   3  -1
M  END
$$$$
Clc1ccc2c(c1)nco2
 OpenBabel07182308452D

 10 11  0  0  1  0  0  0  0  0999 V2000
    3.9933    0.8250    0.0000 C   0  0  0  0  0  0  0  0  0  0  0  0
    3.2789    1.2375    0.0000 C   0  0  0  0  0  0  0  0  0  0  0  0
    3.2789   -0.4125    0.0000 C   0  0  0  0  0  0  0  0  0  0  0  0
    3.9933    0.0000    0.0000 C   0  0  0  0  0  0  0  0  0  0  0  0
    2.5644    0.0000    0.0000 C   0  0  0  0  0  0  0  0  0  0  0  0
    2.5644    0.8250    0.0000 C   0  0  0  0  0  0  0  0  0  0  0  0
    1.2949    0.4125    0.0000 C   0  0  0  0  0  0  0  0  0  0  0  0
    4.7078   -0.4125    0.0000 Cl  0  0  0  0  0  0  0  0  0  0  0  0
    1.7798   -0.2549    0.0000 N   0  0  0  0  0  0  0  0  0  0  0  0
    1.7798    1.0799    0.0000 O   0  0  0  0  0  0  0  0  0  0  0  0
  2  1  2  0  0  0  0
  4  1  1  0  0  0  0
  4  3  2  0  0  0  0
  5  3  1  0  0  0  0
  6  2  1  0  0  0  0
  6  5  2  0  0  0  0
  8  4  1  0  0  0  0
  9  5  1  0  0  0  0
  9  7  2  0  0  0  0
 10  6  1  0  0  0  0
 10  7  1  0  0  0  0
M  END
$$$$
c1cn[nH]n1
 OpenBabel07182308452D

  5  5  0  0  1  0  0  0  0  0999 V2000
   -3.2507    3.1956    0.0000 C   0  0  0  0  0  0  0  0  0  0  0  0
   -4.0734    3.1340    0.0000 C   0  0  0  0  0  0  0  0  0  0  0  0
   -2.9379    2.4323    0.0000 N   0  0  0  0  0  0  0  0  0  0  0  0
   -4.2690    2.3325    0.0000 N   0  0  0  0  0  0  0  0  0  0  0  0
   -3.5672    1.8988    0.0000 N   0  0  0  0  0  0  0  0  0  0  0  0
  2  1  1  0  0  0  0
  3  1  2  0  0  0  0
  4  2  2  0  0  0  0
  5  3  1  0  0  0  0
  5  4  1  0  0  0  0
M  END
$$$$
C[C@H]1NCCNCC1
 OpenBabel07182308452D

  9  9  0  0  1  0  0  0  0  0999 V2000
   -2.0806   -0.3579    0.0000 C   0  0  0  0  0  0  0  0  0  0  0  0
   -0.6923   -0.5143    0.0000 C   0  0  0  0  0  0  0  0  0  0  0  0
    0.1119   -0.3307    0.0000 C   0  0  0  0  0  0  0  0  0  0  0  0
    0.1119    1.1557    0.0000 C   0  0  0  0  0  0  0  0  0  0  0  0
   -0.6923    1.3393    0.0000 C   0  0  0  0  0  0  0  0  0  0  0  0
   -1.3373    0.0000    0.0000 C   0  0  2  0  0  0  0  0  0  0  0  0
    0.4699    0.4125    0.0000 N   0  0  0  0  0  0  0  0  0  0  0  0
   -1.3373    0.8250    0.0000 N   0  0  0  0  0  0  0  0  0  0  0  0
   -2.0359    0.4389    0.0000 H   0  0  0  0  0  0  0  0  0  0  0  0
  3  2  1  0  0  0  0
  5  4  1  0  0  0  0
  6  1  1  0  0  0  0
  6  2  1  0  0  0  0
  6  9  1  6  0  0  0
  7  3  1  0  0  0  0
  7  4  1  0  0  0  0
  8  5  1  0  0  0  0
  8  6  1  0  0  0  0
M  END
$$$$
C=C1CCNCC1
 OpenBabel07182308452D

  7  7  0  0  1  0  0  0  0  0999 V2000
   15.8375  -33.8775    0.0000 N   0  0  0  0  0  0  0  0  0  0  0  0
   15.1403  -33.4750    0.0000 C   0  0  0  0  0  0  0  0  0  0  0  0
   14.4258  -33.8874    0.0000 C   0  0  0  0  0  0  0  0  0  0  0  0
   14.4257  -34.7125    0.0000 C   0  0  0  0  0  0  0  0  0  0  0  0
   15.1229  -35.1151    0.0000 C   0  0  0  0  0  0  0  0  0  0  0  0
   15.8374  -34.7026    0.0000 C   0  0  0  0  0  0  0  0  0  0  0  0
   13.7013  -35.1307    0.0000 C   0  0  0  0  0  0  0  0  0  0  0  0
  1  2  1  0  0  0  0
  1  6  1  0  0  0  0
  2  3  1  0  0  0  0
  3  4  1  0  0  0  0
  4  5  1  0  0  0  0
  4  7  2  0  0  0  0
  5  6  1  0  0  0  0
M  END
$$$$
Fc1ccc2c(c1)COB2O
 OpenBabel07182308452D

 12 13  0  0  0  0  0  0  0  0999 V2000
   15.6014  -18.1299    0.0000 C   0  0  0  0  0  0  0  0  0  0  0  0
   15.6014  -18.9549    0.0000 C   0  0  0  0  0  0  0  0  0  0  0  0
   16.3158  -19.3674    0.0000 C   0  0  0  0  0  0  0  0  0  0  0  0
   17.0303  -18.9549    0.0000 C   0  0  0  0  0  0  0  0  0  0  0  0
   17.0303  -18.1299    0.0000 C   0  0  0  0  0  0  0  0  0  0  0  0
   16.3158  -17.7174    0.0000 C   0  0  0  0  0  0  0  0  0  0  0  0
   14.8869  -19.3674    0.0000 F   0  0  0  0  0  0  0  0  0  0  0  0
   17.8150  -19.2098    0.0000 C   0  0  0  0  0  0  0  0  0  0  0  0
   18.2999  -18.5424    0.0000 O   0  0  0  0  0  0  0  0  0  0  0  0
   17.8150  -17.8750    0.0000 B   0  0  0  0  0  0  0  0  0  0  0  0
   18.0690  -17.0931    0.0000 O   0  0  0  0  0  0  0  0  0  0  0  0
   19.0178  -16.8914    0.0000 H   0  0  0  0  0  0  0  0  0  0  0  0
  1  2  2  0  0  0  0
  1  6  1  0  0  0  0
  2  3  1  0  0  0  0
  2  7  1  0  0  0  0
  3  4  2  0  0  0  0
  4  5  1  0  0  0  0
  4  8  1  0  0  0  0
  5  6  2  0  0  0  0
  5 10  1  0  0  0  0
  8  9  1  0  0  0  0
  9 10  1  0  0  0  0
 10 11  1  0  0  0  0
 11 12  1  0  0  0  0
M  END
$$$$
Cn1nncn1
 OpenBabel07182308452D

  6  6  0  0  1  0  0  0  0  0999 V2000
    0.7144   -2.8875    0.0000 C   0  0  0  0  0  0  0  0  0  0  0  0
    0.7144   -3.7125    0.0000 N   0  0  0  0  0  0  0  0  0  0  0  0
    1.3819   -4.1974    0.0000 N   0  0  0  0  0  0  0  0  0  0  0  0
    1.1269   -4.9820    0.0000 N   0  0  0  0  0  0  0  0  0  0  0  0
    0.3019   -4.9820    0.0000 C   0  0  0  0  0  0  0  0  0  0  0  0
    0.0470   -4.1974    0.0000 N   0  0  0  0  0  0  0  0  0  0  0  0
  1  2  1  0  0  0  0
  2  3  1  0  0  0  0
  2  6  1  0  0  0  0
  3  4  2  0  0  0  0
  4  5  1  0  0  0  0
  5  6  2  0  0  0  0
M  END
$$$$
N#Cc1cc(F)cc2c1[nH]ccc2=O
 OpenBabel07182308452D

 14 15  0  0  1  0  0  0  0  0999 V2000
   21.6997  -16.5816    0.0000 C   0  0  0  0  0  0  0  0  0  0  0  0
   22.4010  -16.9941    0.0000 N   0  0  0  0  0  0  0  0  0  0  0  0
   20.9985  -16.9941    0.0000 C   0  0  0  0  0  0  0  0  0  0  0  0
   21.6997  -15.7566    0.0000 C   0  0  0  0  0  0  0  0  0  0  0  0
   23.1435  -16.5816    0.0000 C   0  0  0  0  0  0  0  0  0  0  0  0
   20.2559  -16.5816    0.0000 C   0  0  0  0  0  0  0  0  0  0  0  0
   22.4010  -15.3441    0.0000 C   0  0  0  0  0  0  0  0  0  0  0  0
   20.9985  -15.3441    0.0000 C   0  0  0  0  0  0  0  0  0  0  0  0
   23.1435  -15.7566    0.0000 C   0  0  0  0  0  0  0  0  0  0  0  0
   20.2559  -15.7566    0.0000 C   0  0  0  0  0  0  0  0  0  0  0  0
   22.4010  -14.5603    0.0000 O   0  0  0  0  0  0  0  0  0  0  0  0
   19.5546  -15.3441    0.0000 F   0  0  0  0  0  0  0  0  0  0  0  0
   21.0086  -17.8191    0.0000 C   0  0  0  0  0  0  0  0  0  0  0  0
   21.0086  -18.6441    0.0000 N   0  0  0  0  0  0  0  0  0  0  0  0
  1  2  1  0  0  0  0
  1  3  2  0  0  0  0
  1  4  1  0  0  0  0
  2  5  1  0  0  0  0
  3  6  1  0  0  0  0
  3 13  1  0  0  0  0
  4  7  1  0  0  0  0
  4  8  2  0  0  0  0
  5  9  2  0  0  0  0
  6 10  2  0  0  0  0
  7 11  2  0  0  0  0
  7  9  1  0  0  0  0
  8 10  1  0  0  0  0
 10 12  1  0  0  0  0
 13 14  3  0  0  0  0
M  END
$$$$
C1CO[C@@H]2[C@@H](N1)CNC2
 OpenBabel07182308452D

 12 13  0  0  1  0  0  0  0  0999 V2000
   19.5960  -17.1179    0.0000 N   0  0  0  0  0  0  0  0  0  0  0  0
   19.1009  -16.4578    0.0000 C   0  0  0  0  0  0  0  0  0  0  0  0
   19.1009  -17.7779    0.0000 C   0  0  0  0  0  0  0  0  0  0  0  0
   18.3172  -16.7054    0.0000 C   0  0  1  0  0  0  0  0  0  0  0  0
   18.3172  -17.5304    0.0000 C   0  0  1  0  0  0  0  0  0  0  0  0
   17.5746  -16.2929    0.0000 O   0  0  0  0  0  0  0  0  0  0  0  0
   17.6159  -17.9429    0.0000 N   0  0  0  0  0  0  0  0  0  0  0  0
   16.8733  -16.7054    0.0000 C   0  0  0  0  0  0  0  0  0  0  0  0
   16.8733  -17.5304    0.0000 C   0  0  0  0  0  0  0  0  0  0  0  0
   18.3172  -18.3555    0.0000 H   0  0  0  0  0  0  0  0  0  0  0  0
   18.3172  -15.8803    0.0000 H   0  0  0  0  0  0  0  0  0  0  0  0
   17.6285  -18.9628    0.0000 H   0  0  0  0  0  0  0  0  0  0  0  0
  1  2  1  0  0  0  0
  1  3  1  0  0  0  0
  2  4  1  0  0  0  0
  3  5  1  0  0  0  0
  4  6  1  0  0  0  0
  4  5  1  6  0  0  0
  4 11  1  0  0  0  0
  5  7  1  0  0  0  0
  5 10  1  1  0  0  0
  6  8  1  0  0  0  0
  7  9  1  0  0  0  0
  7 12  1  0  0  0  0
  8  9  1  0  0  0  0
M  END
$$$$
CN1CC[C@@]23[C@@]4([C@H]1Cc1c3c(O[C@H]2CCC4)c(cc1)O)O
 OpenBabel07182308452D

 23 27  0  0  1  0  0  0  0  0999 V2000
   31.9168    1.3170    0.0000 C   0  0  0  0  0  0  0  0  0  0  0  0
   32.6200    1.7393    0.0000 C   0  0  0  0  0  0  0  0  0  0  0  0
   33.2801    1.2795    0.0000 C   0  0  0  0  0  0  0  0  0  0  0  0
   33.2220    0.2963    0.0000 C   0  0  1  0  0  0  0  0  0  0  0  0
   33.8679   -0.4439    0.0000 C   0  0  1  0  0  0  0  0  0  0  0  0
   33.6877   -1.2424    0.0000 C   0  0  0  0  0  0  0  0  0  0  0  0
   32.8932   -1.3793    0.0000 C   0  0  0  0  0  0  0  0  0  0  0  0
   32.6381   -2.1683    0.0000 C   0  0  0  0  0  0  0  0  0  0  0  0
   31.8246   -2.3144    0.0000 C   0  0  0  0  0  0  0  0  0  0  0  0
   31.2906   -1.6696    0.0000 C   0  0  0  0  0  0  0  0  0  0  0  0
   31.5587   -0.8590    0.0000 C   0  0  0  0  0  0  0  0  0  0  0  0
   32.3699   -0.7339    0.0000 C   0  0  0  0  0  0  0  0  0  0  0  0
   32.6717    0.0934    0.0000 C   0  0  1  0  0  0  0  0  0  0  0  0
   31.9023    0.4759    0.0000 C   0  0  1  0  0  0  0  0  0  0  0  0
   31.2725   -0.0708    0.0000 O   0  0  0  0  0  0  0  0  0  0  0  0
   33.4327    0.7959    0.0000 C   0  0  0  0  0  0  0  0  0  0  0  0
   34.3303    0.7511    0.0000 C   0  0  0  0  0  0  0  0  0  0  0  0
   34.5561   -0.0341    0.0000 N   0  0  0  0  0  0  0  0  0  0  0  0
   35.3232   -0.3378    0.0000 C   0  0  0  0  0  0  0  0  0  0  0  0
   30.4799   -1.8223    0.0000 O   0  0  0  0  0  0  0  0  0  0  0  0
   34.0027    0.5630    0.0000 O   0  0  0  0  0  0  0  0  0  0  0  0
   29.8693   -1.1116    0.0000 H   0  0  0  0  0  0  0  0  0  0  0  0
   34.7332   -0.0752    0.0000 H   0  0  0  0  0  0  0  0  0  0  0  0
  1  2  1  0  0  0  0
  1 14  1  0  0  0  0
  2  3  1  0  0  0  0
  3  4  1  0  0  0  0
  4 13  1  6  0  0  0
  4 21  1  0  0  0  0
  5  4  1  6  0  0  0
  5  6  1  0  0  0  0
  5 18  1  0  0  0  0
  6  7  1  0  0  0  0
  7  8  2  0  0  0  0
  7 12  1  0  0  0  0
  8  9  1  0  0  0  0
  9 10  2  0  0  0  0
 10 11  1  0  0  0  0
 10 20  1  0  0  0  0
 11 12  2  0  0  0  0
 11 15  1  0  0  0  0
 13 12  1  0  0  0  0
 13 16  1  6  0  0  0
 14 13  1  1  0  0  0
 14 15  1  0  0  0  0
 16 17  1  0  0  0  0
 17 18  1  0  0  0  0
 18 19  1  0  0  0  0
 20 22  1  0  0  0  0
 21 23  1  0  0  0  0
M  END
$$$$
CN1C(=C(C=[NH+]1)N)N
 OpenBabel07182308452D

 11 11  0  0  1  0  0  0  0  0999 V2000
    1.0500    5.6251    0.0000 N   0  3  0  0  0  0  0  0  0  0  0  0
    1.8570    5.4536    0.0000 C   0  0  0  0  0  0  0  0  0  0  0  0
    1.9432    4.6331    0.0000 C   0  0  0  0  0  0  0  0  0  0  0  0
    1.1895    4.2976    0.0000 C   0  0  0  0  0  0  0  0  0  0  0  0
    0.6375    4.9107    0.0000 N   0  0  0  0  0  0  0  0  0  0  0  0
   -0.1829    4.8244    0.0000 C   0  0  0  0  0  0  0  0  0  0  0  0
    1.0180    3.4906    0.0000 N   0  0  0  0  0  0  0  0  0  0  0  0
    2.6577    4.2206    0.0000 N   0  0  0  0  0  0  0  0  0  0  0  0
    0.0817    3.1863    0.0000 H   0  0  0  0  0  0  0  0  0  0  0  0
    1.7497    2.8319    0.0000 H   0  0  0  0  0  0  0  0  0  0  0  0
    2.6577    3.2361    0.0000 H   0  0  0  0  0  0  0  0  0  0  0  0
  1  2  2  0  0  0  0
  1  5  1  0  0  0  0
  2  3  1  0  0  0  0
  3  4  2  0  0  0  0
  3  8  1  0  0  0  0
  4  5  1  0  0  0  0
  4  7  1  0  0  0  0
  5  6  1  0  0  0  0
  7  9  1  0  0  0  0
  7 10  1  0  0  0  0
  8 11  1  0  0  0  0
M  CHG  1   1   1
M  END
$$$$
Nc1ncnc2c1cn[nH]2
 OpenBabel07182308452D

 12 13  0  0  1  0  0  0  0  0999 V2000
   -0.1435   -1.3653    0.0000 N   0  0  0  0  0  0  0  0  0  0  0  0
    0.6411   -1.1104    0.0000 C   0  0  0  0  0  0  0  0  0  0  0  0
    0.6411   -0.2854    0.0000 C   0  0  0  0  0  0  0  0  0  0  0  0
   -0.1435   -0.0305    0.0000 C   0  0  0  0  0  0  0  0  0  0  0  0
   -0.6284   -0.6979    0.0000 N   0  0  0  0  0  0  0  0  0  0  0  0
    1.3555    0.1270    0.0000 C   0  0  0  0  0  0  0  0  0  0  0  0
    2.0700   -0.2854    0.0000 N   0  0  0  0  0  0  0  0  0  0  0  0
    2.0700   -1.1104    0.0000 C   0  0  0  0  0  0  0  0  0  0  0  0
    1.3555   -1.5229    0.0000 N   0  0  0  0  0  0  0  0  0  0  0  0
    1.3555    0.9520    0.0000 N   0  0  0  0  0  0  0  0  0  0  0  0
    2.2081    1.4443    0.0000 H   0  0  0  0  0  0  0  0  0  0  0  0
    0.5029    1.4442    0.0000 H   0  0  0  0  0  0  0  0  0  0  0  0
  1  2  1  0  0  0  0
  1  5  1  0  0  0  0
  2  3  2  0  0  0  0
  2  9  1  0  0  0  0
  3  4  1  0  0  0  0
  3  6  1  0  0  0  0
  4  5  2  0  0  0  0
  6  7  2  0  0  0  0
  6 10  1  0  0  0  0
  7  8  1  0  0  0  0
  8  9  2  0  0  0  0
 10 11  1  0  0  0  0
 10 12  1  0  0  0  0
M  END
$$$$
Fc1cccc2c1c(=O)[nH]cn2
 OpenBabel07182308452D

 12 13  0  0  1  0  0  0  0  0999 V2000
   -0.7144   -1.2375    0.0000 C   0  0  0  0  0  0  0  0  0  0  0  0
    0.0000   -1.6500    0.0000 C   0  0  0  0  0  0  0  0  0  0  0  0
   -0.7144   -0.4125    0.0000 C   0  0  0  0  0  0  0  0  0  0  0  0
    0.7144   -1.2375    0.0000 C   0  0  0  0  0  0  0  0  0  0  0  0
    0.0000    0.0000    0.0000 C   0  0  0  0  0  0  0  0  0  0  0  0
    0.7144   -0.4125    0.0000 C   0  0  0  0  0  0  0  0  0  0  0  0
    0.7144    1.2375    0.0000 C   0  0  0  0  0  0  0  0  0  0  0  0
    1.4289    0.0000    0.0000 C   0  0  0  0  0  0  0  0  0  0  0  0
    1.4289   -1.6500    0.0000 F   0  0  0  0  0  0  0  0  0  0  0  0
    0.0000    0.8250    0.0000 N   0  0  0  0  0  0  0  0  0  0  0  0
    1.4289    0.8250    0.0000 N   0  0  0  0  0  0  0  0  0  0  0  0
    2.1434   -0.4125    0.0000 O   0  0  0  0  0  0  0  0  0  0  0  0
  2  1  2  0  0  0  0
  3  1  1  0  0  0  0
  4  2  1  0  0  0  0
  5  3  2  0  0  0  0
  6  4  2  0  0  0  0
  6  5  1  0  0  0  0
  8  6  1  0  0  0  0
  9  4  1  0  0  0  0
 10  5  1  0  0  0  0
 10  7  2  0  0  0  0
 11  7  1  0  0  0  0
 11  8  1  0  0  0  0
 12  8  2  0  0  0  0
M  END
$$$$
[O-][n+]1ccncc1C
 OpenBabel07182308452D

  8  8  0  0  0  0  0  0  0  0999 V2000
   26.5035  -17.9954    0.0000 C   0  0  0  0  0  0  0  0  0  0  0  0
   26.5035  -18.8204    0.0000 C   0  0  0  0  0  0  0  0  0  0  0  0
   27.2180  -19.2329    0.0000 N   0  3  0  0  0  0  0  0  0  0  0  0
   27.9325  -18.8204    0.0000 C   0  0  0  0  0  0  0  0  0  0  0  0
   27.9325  -17.9954    0.0000 C   0  0  0  0  0  0  0  0  0  0  0  0
   27.2180  -17.5829    0.0000 N   0  0  0  0  0  0  0  0  0  0  0  0
   28.6580  -19.2394    0.0000 C   0  0  0  0  0  0  0  0  0  0  0  0
   27.2180  -20.0578    0.0000 O   0  5  0  0  0  0  0  0  0  0  0  0
  1  2  2  0  0  0  0
  1  6  1  0  0  0  0
  2  3  1  0  0  0  0
  3  4  2  0  0  0  0
  3  8  1  0  0  0  0
  4  5  1  0  0  0  0
  4  7  1  0  0  0  0
  5  6  2  0  0  0  0
M  CHG  2   3   1   8  -1
M  END
$$$$
C[C@@H]1CNC[C@@H](O1)C
 OpenBabel07182308452D

 10 10  0  0  0  0  0  0  0  0999 V2000
    0.7144   -1.2375    0.0000 C   0  0  0  0  0  0  0  0  0  0  0  0
    2.1434    1.2375    0.0000 C   0  0  0  0  0  0  0  0  0  0  0  0
    0.0000    0.0000    0.0000 C   0  0  0  0  0  0  0  0  0  0  0  0
    0.7144    1.2375    0.0000 C   0  0  0  0  0  0  0  0  0  0  0  0
    0.7144   -0.4125    0.0000 C   0  0  1  0  0  0  0  0  0  0  0  0
    1.4289    0.8250    0.0000 C   0  0  2  0  0  0  0  0  0  0  0  0
    0.0000    0.8250    0.0000 N   0  0  0  0  0  0  0  0  0  0  0  0
    1.4289    0.0000    0.0000 O   0  0  0  0  0  0  0  0  0  0  0  0
    1.4289   -0.8250    0.0000 H   0  0  0  0  0  0  0  0  0  0  0  0
    2.1434    0.4125    0.0000 H   0  0  0  0  0  0  0  0  0  0  0  0
  5  1  1  0  0  0  0
  5  3  1  0  0  0  0
  5  9  1  6  0  0  0
  6  2  1  0  0  0  0
  6  4  1  0  0  0  0
  6 10  1  6  0  0  0
  7  3  1  0  0  0  0
  7  4  1  0  0  0  0
  8  5  1  0  0  0  0
  8  6  1  0  0  0  0
M  END
$$$$
O=C1NCC(=O)N[C@@H](C)C(=O)NCCSSCCC(=O)N[C@@H](C(=O)NC1)C
 OpenBabel07182308452D

 34 34  0  0  0  0  0  0  0  0999 V2000
    0.4532    1.8572    0.0000 C   0  0  0  0  0  0  0  0  0  0  0  0
    0.4532    2.6822    0.0000 O   0  0  0  0  0  0  0  0  0  0  0  0
    1.1676    1.4447    0.0000 N   0  0  0  0  0  0  0  0  0  0  0  0
    1.8821    1.8572    0.0000 C   0  0  1  0  0  0  0  0  0  0  0  0
    2.5965    1.4447    0.0000 C   0  0  0  0  0  0  0  0  0  0  0  0
    1.8821    2.6822    0.0000 C   0  0  0  0  0  0  0  0  0  0  0  0
    2.5965    0.6197    0.0000 O   0  0  0  0  0  0  0  0  0  0  0  0
    3.3110    1.8572    0.0000 N   0  0  0  0  0  0  0  0  0  0  0  0
    4.0256    1.4447    0.0000 C   0  0  0  0  0  0  0  0  0  0  0  0
    4.0256    0.6197    0.0000 C   0  0  0  0  0  0  0  0  0  0  0  0
    3.3110    0.2072    0.0000 O   0  0  0  0  0  0  0  0  0  0  0  0
    4.7399    0.2072    0.0000 N   0  0  0  0  0  0  0  0  0  0  0  0
    4.7399   -0.6177    0.0000 C   0  0  0  0  0  0  0  0  0  0  0  0
    4.0256   -1.0302    0.0000 C   0  0  0  0  0  0  0  0  0  0  0  0
    3.3110   -0.6177    0.0000 O   0  0  0  0  0  0  0  0  0  0  0  0
    4.0256   -1.8552    0.0000 N   0  0  0  0  0  0  0  0  0  0  0  0
    3.3110   -2.2677    0.0000 C   0  0  1  0  0  0  0  0  0  0  0  0
    3.3110   -3.0927    0.0000 C   0  0  0  0  0  0  0  0  0  0  0  0
    2.5965   -1.8552    0.0000 C   0  0  0  0  0  0  0  0  0  0  0  0
    2.5965   -1.0302    0.0000 O   0  0  0  0  0  0  0  0  0  0  0  0
    1.8821   -2.2677    0.0000 N   0  0  0  0  0  0  0  0  0  0  0  0
    1.1676   -1.8552    0.0000 C   0  0  0  0  0  0  0  0  0  0  0  0
    1.1676   -1.0302    0.0000 C   0  0  0  0  0  0  0  0  0  0  0  0
    0.4532   -0.6177    0.0000 S   0  0  0  0  0  0  0  0  0  0  0  0
    0.4532    0.2072    0.0000 S   0  0  0  0  0  0  0  0  0  0  0  0
   -0.2612    0.6197    0.0000 C   0  0  0  0  0  0  0  0  0  0  0  0
   -0.2612    1.4447    0.0000 C   0  0  0  0  0  0  0  0  0  0  0  0
    5.6060   -0.1177    0.0000 H   0  0  0  0  0  0  0  0  0  0  0  0
    4.0256    2.4447    0.0000 H   0  0  0  0  0  0  0  0  0  0  0  0
    1.1676    0.4602    0.0000 H   0  0  0  0  0  0  0  0  0  0  0  0
    3.3110    2.8417    0.0000 H   0  0  0  0  0  0  0  0  0  0  0  0
    5.5925    0.6994    0.0000 H   0  0  0  0  0  0  0  0  0  0  0  0
    4.8782   -2.3475    0.0000 H   0  0  0  0  0  0  0  0  0  0  0  0
    1.8821   -3.2522    0.0000 H   0  0  0  0  0  0  0  0  0  0  0  0
  1  2  2  0  0  0  0
  1  3  1  0  0  0  0
  3 30  1  0  0  0  0
  4  3  1  0  0  0  0
  4  5  1  0  0  0  0
  4  6  1  6  0  0  0
  5  7  2  0  0  0  0
  5  8  1  0  0  0  0
  8 31  1  0  0  0  0
  9 10  1  0  0  0  0
  9  8  1  0  0  0  0
  9 29  1  0  0  0  0
 10 11  2  0  0  0  0
 10 12  1  0  0  0  0
 12 32  1  0  0  0  0
 13 12  1  0  0  0  0
 13 14  1  0  0  0  0
 13 28  1  0  0  0  0
 14 15  2  0  0  0  0
 14 16  1  0  0  0  0
 16 33  1  0  0  0  0
 17 16  1  0  0  0  0
 17 18  1  1  0  0  0
 17 19  1  0  0  0  0
 19 21  1  0  0  0  0
 19 20  2  0  0  0  0
 21 34  1  0  0  0  0
 22 21  1  0  0  0  0
 22 23  1  0  0  0  0
 23 24  1  0  0  0  0
 24 25  1  0  0  0  0
 25 26  1  0  0  0  0
 26 27  1  0  0  0  0
 27  1  1  0  0  0  0
M  END
$$$$
O=C1N2CCC[C@@H](N1O)C2
 OpenBabel07182308452D

 10 11  0  0  0  0  0  0  0  0999 V2000
   -0.2505    0.9320    0.0000 C   0  0  0  0  0  0  0  0  0  0  0  0
    0.4639    0.5194    0.0000 C   0  0  0  0  0  0  0  0  0  0  0  0
    0.4639   -0.3055    0.0000 C   0  0  2  0  0  0  0  0  0  0  0  0
   -0.2505   -0.7181    0.0000 C   0  0  0  0  0  0  0  0  0  0  0  0
   -0.9651   -0.3055    0.0000 N   0  0  0  0  0  0  0  0  0  0  0  0
   -0.9651    0.5194    0.0000 C   0  0  0  0  0  0  0  0  0  0  0  0
   -0.7515   -1.1026    0.0000 C   0  0  0  0  0  0  0  0  0  0  0  0
    0.2504   -1.1026    0.0000 N   0  0  0  0  0  0  0  0  0  0  0  0
   -1.2538   -1.7571    0.0000 O   0  0  0  0  0  0  0  0  0  0  0  0
    0.9650   -1.5151    0.0000 O   0  0  0  0  0  0  0  0  0  0  0  0
  1  2  1  0  0  0  0
  3  2  1  1  0  0  0
  3  4  1  0  0  0  0
  3  8  1  0  0  0  0
  4  5  1  0  0  0  0
  5  6  1  0  0  0  0
  5  7  1  0  0  0  0
  6  1  1  0  0  0  0
  7  8  1  0  0  0  0
  7  9  2  0  0  0  0
  8 10  1  0  0  0  0
M  END
$$$$
Cc1cc(O)cc(c1)O
 OpenBabel07182308452D

 11 11  0  0  0  0  0  0  0  0999 V2000
   -0.7141   -1.6592    0.0000 C   0  0  0  0  0  0  0  0  0  0  0  0
    0.0022   -1.2459    0.0000 C   0  0  0  0  0  0  0  0  0  0  0  0
   -0.0006   -0.4155    0.0000 C   0  0  0  0  0  0  0  0  0  0  0  0
   -0.7159   -0.0063    0.0000 C   0  0  0  0  0  0  0  0  0  0  0  0
   -1.4289   -1.2464    0.0000 C   0  0  0  0  0  0  0  0  0  0  0  0
   -1.4246   -0.4191    0.0000 C   0  0  0  0  0  0  0  0  0  0  0  0
   -0.7191    0.8186    0.0000 O   0  0  0  0  0  0  0  0  0  0  0  0
    0.7173   -1.6573    0.0000 C   0  0  0  0  0  0  0  0  0  0  0  0
   -1.4346   -2.0689    0.0000 O   0  0  0  0  0  0  0  0  0  0  0  0
    0.0905    1.2902    0.0000 H   0  0  0  0  0  0  0  0  0  0  0  0
   -2.2493   -2.5318    0.0000 H   0  0  0  0  0  0  0  0  0  0  0  0
  1  2  2  0  0  0  0
  2  3  1  0  0  0  0
  2  8  1  0  0  0  0
  3  4  2  0  0  0  0
  4  7  1  0  0  0  0
  4  6  1  0  0  0  0
  5  6  2  0  0  0  0
  5  1  1  0  0  0  0
  5  9  1  0  0  0  0
  7 10  1  0  0  0  0
  9 11  1  0  0  0  0
M  END
$$$$
CC1=CCCCC1
 OpenBabel07182308452D

  7  7  0  0  0  0  0  0  0  0999 V2000
   -2.8543   -0.4118    0.0000 C   0  0  0  0  0  0  0  0  0  0  0  0
   -2.1308   -0.0061    0.0000 C   0  0  0  0  0  0  0  0  0  0  0  0
   -2.1204    0.8187    0.0000 C   0  0  0  0  0  0  0  0  0  0  0  0
   -2.8318    1.2440    0.0000 C   0  0  0  0  0  0  0  0  0  0  0  0
   -3.5555    0.8383    0.0000 C   0  0  0  0  0  0  0  0  0  0  0  0
   -3.5675    0.0072    0.0000 C   0  0  0  0  0  0  0  0  0  0  0  0
   -2.8205    2.0689    0.0000 C   0  0  0  0  0  0  0  0  0  0  0  0
  1  6  1  0  0  0  0
  1  2  1  0  0  0  0
  2  3  1  0  0  0  0
  3  4  2  0  0  0  0
  4  5  1  0  0  0  0
  4  7  1  0  0  0  0
  5  6  1  0  0  0  0
M  END
$$$$
Nc1ncc(c(n1)N)Cl
 OpenBabel07182308452D

 11 11  0  0  0  0  0  0  0  0999 V2000
   18.8497   -5.3426    0.0000 N   0  0  0  0  0  0  0  0  0  0  0  0
   18.8497   -6.1676    0.0000 C   0  0  0  0  0  0  0  0  0  0  0  0
   18.1352   -4.9301    0.0000 C   0  0  0  0  0  0  0  0  0  0  0  0
   18.1352   -6.5802    0.0000 N   0  0  0  0  0  0  0  0  0  0  0  0
   17.4207   -5.3426    0.0000 C   0  0  0  0  0  0  0  0  0  0  0  0
   17.4207   -6.1676    0.0000 C   0  0  0  0  0  0  0  0  0  0  0  0
   19.5678   -6.5726    0.0000 N   0  0  0  0  0  0  0  0  0  0  0  0
   16.7062   -6.5802    0.0000 N   0  0  0  0  0  0  0  0  0  0  0  0
   16.7062   -4.9301    0.0000 Cl  0  0  0  0  0  0  0  0  0  0  0  0
   20.4176   -6.0755    0.0000 H   0  0  0  0  0  0  0  0  0  0  0  0
   16.7062   -7.5647    0.0000 H   0  0  0  0  0  0  0  0  0  0  0  0
  2  1  1  0  0  0  0
  2  7  1  0  0  0  0
  3  1  2  0  0  0  0
  4  2  2  0  0  0  0
  5  3  1  0  0  0  0
  5  9  1  0  0  0  0
  6  4  1  0  0  0  0
  6  5  2  0  0  0  0
  6  8  1  0  0  0  0
  7 10  1  0  0  0  0
  8 11  1  0  0  0  0
M  END
$$$$
ClC1(Cl)CC1
 OpenBabel07182308452D

  5  5  0  0  0  0  0  0  0  0999 V2000
   -4.3973   -1.2374    0.0000 C   0  0  0  0  0  0  0  0  0  0  0  0
   -3.5722   -1.2374    0.0000 C   0  0  0  0  0  0  0  0  0  0  0  0
   -3.9848   -1.9519    0.0000 C   0  0  0  0  0  0  0  0  0  0  0  0
   -4.3973   -2.6664    0.0000 Cl  0  0  0  0  0  0  0  0  0  0  0  0
   -3.5722   -2.6664    0.0000 Cl  0  0  0  0  0  0  0  0  0  0  0  0
  2  1  1  0  0  0  0
  3  1  1  0  0  0  0
  3  2  1  0  0  0  0
  3  4  1  0  0  0  0
  3  5  1  0  0  0  0
M  END
$$$$
Cc1ccc(c(c1)C)S
 OpenBabel07182308452D

  9  9  0  0  0  0  0  0  0  0999 V2000
    0.3487   -0.4076    0.0000 S   0  0  0  0  0  0  0  0  0  0  0  0
   -0.3632   -0.8243    0.0000 C   0  0  0  0  0  0  0  0  0  0  0  0
   -1.0787   -0.4184    0.0000 C   0  0  0  0  0  0  0  0  0  0  0  0
   -1.7907   -0.8351    0.0000 C   0  0  0  0  0  0  0  0  0  0  0  0
   -1.7873   -1.6577    0.0000 C   0  0  0  0  0  0  0  0  0  0  0  0
   -1.0697   -2.0671    0.0000 C   0  0  0  0  0  0  0  0  0  0  0  0
   -0.3577   -1.6504    0.0000 C   0  0  0  0  0  0  0  0  0  0  0  0
   -2.4993   -2.0744    0.0000 C   0  0  0  0  0  0  0  0  0  0  0  0
   -1.0842    0.4076    0.0000 C   0  0  0  0  0  0  0  0  0  0  0  0
  1  2  1  0  0  0  0
  2  3  1  0  0  0  0
  2  7  2  0  0  0  0
  3  4  2  0  0  0  0
  3  9  1  0  0  0  0
  4  5  1  0  0  0  0
  5  6  2  0  0  0  0
  5  8  1  0  0  0  0
  6  7  1  0  0  0  0
M  END
$$$$
C#C[C@]1(O)CC[C@@H]2[C@]1(C)CC[C@H]1[C@H]2[C@H](C)CC2=C1CCC(=O)C2
 OpenBabel07182308452D

 28 31  0  0  1  0  0  0  0  0999 V2000
    0.7296   -1.5424    0.0000 C   0  0  0  0  0  0  0  0  0  0  0  0
    4.0193    1.0490    0.0000 C   0  0  0  0  0  0  0  0  0  0  0  0
    2.8185   -2.0212    0.0000 C   0  0  0  0  0  0  0  0  0  0  0  0
    1.5417   -1.3972    0.0000 C   0  0  0  0  0  0  0  0  0  0  0  0
    6.9587   -1.3287    0.0000 C   0  0  0  0  0  0  0  0  0  0  0  0
    6.1465   -1.4739    0.0000 C   0  0  0  0  0  0  0  0  0  0  0  0
    4.5223   -1.7643    0.0000 C   0  0  0  0  0  0  0  0  0  0  0  0
    2.8073    0.0035    0.0000 C   0  0  0  0  0  0  0  0  0  0  0  0
    3.7102   -1.9095    0.0000 C   0  0  0  0  0  0  0  0  0  0  0  0
    2.1245   -0.4595    0.0000 C   0  0  0  0  0  0  0  0  0  0  0  0
    5.3632    0.5635    0.0000 C   0  0  0  0  0  0  0  0  0  0  0  0
    6.7071    0.0780    0.0000 C   0  0  0  0  0  0  0  0  0  0  0  0
    4.5511    0.4183    0.0000 C   0  0  2  0  0  0  0  0  0  0  0  0
    5.8950   -0.0672    0.0000 C   0  0  0  0  0  0  0  0  0  0  0  0
    7.2390   -0.5527    0.0000 C   0  0  0  0  0  0  0  0  0  0  0  0
    5.6147   -0.8432    0.0000 C   0  0  0  0  0  0  0  0  0  0  0  0
    4.8026   -0.9884    0.0000 C   0  0  2  0  0  0  0  0  0  0  0  0
    3.4587   -0.5029    0.0000 C   0  0  1  0  0  0  0  0  0  0  0  0
    4.2708   -0.3577    0.0000 C   0  0  2  0  0  0  0  0  0  0  0  0
    3.1784   -1.2788    0.0000 C   0  0  2  0  0  0  0  0  0  0  0  0
    2.3538   -1.2520    0.0000 C   0  0  2  0  0  0  0  0  0  0  0  0
    8.0511   -0.4075    0.0000 O   0  0  0  0  0  0  0  0  0  0  0  0
    2.4133   -2.0748    0.0000 O   0  0  0  0  0  0  0  0  0  0  0  0
    3.7390    0.2730    0.0000 H   0  0  0  0  0  0  0  0  0  0  0  0
    5.0829   -0.2124    0.0000 H   0  0  0  0  0  0  0  0  0  0  0  0
    3.9905   -1.1336    0.0000 H   0  0  0  0  0  0  0  0  0  0  0  0
    3.4949   -0.0774    0.0000 H   0  0  0  0  0  0  0  0  0  0  0  0
    1.6104   -2.6191    0.0000 H   0  0  0  0  0  0  0  0  0  0  0  0
  4  1  3  0  0  0  0
  6  5  1  0  0  0  0
  9  7  1  0  0  0  0
 10  8  1  0  0  0  0
 13  2  1  0  0  0  0
 13 11  1  0  0  0  0
 13 19  1  6  0  0  0
 13 24  1  0  0  0  0
 14 11  1  0  0  0  0
 14 12  1  0  0  0  0
 15  5  1  0  0  0  0
 15 12  1  0  0  0  0
 16  6  1  0  0  0  0
 16 14  2  0  0  0  0
 17  7  1  0  0  0  0
 17 16  1  0  0  0  0
 17 19  1  1  0  0  0
 17 25  1  0  0  0  0
 18  8  1  0  0  0  0
 18 19  1  1  0  0  0
 18 26  1  0  0  0  0
 19 27  1  1  0  0  0
 20  3  1  0  0  0  0
 20  9  1  0  0  0  0
 20 18  1  1  0  0  0
 21  4  1  0  0  0  0
 21 10  1  0  0  0  0
 21 20  1  6  0  0  0
 21 23  1  0  0  0  0
 22 15  2  0  0  0  0
 23 28  1  0  0  0  0
M  END
$$$$
c1ccc2c(c1)OCC2
 OpenBabel07182308452D

  9 10  0  0  0  0  0  0  0  0999 V2000
   -0.8962   -0.9655    0.0000 C   0  0  0  0  0  0  0  0  0  0  0  0
   -0.8962   -1.7906    0.0000 C   0  0  0  0  0  0  0  0  0  0  0  0
   -1.5975   -2.2032    0.0000 C   0  0  0  0  0  0  0  0  0  0  0  0
   -2.3401   -1.7906    0.0000 C   0  0  0  0  0  0  0  0  0  0  0  0
   -2.3401   -0.9655    0.0000 C   0  0  0  0  0  0  0  0  0  0  0  0
   -1.5975   -0.5530    0.0000 C   0  0  0  0  0  0  0  0  0  0  0  0
   -0.1123   -0.7180    0.0000 C   0  0  0  0  0  0  0  0  0  0  0  0
    0.3827   -1.3781    0.0000 C   0  0  0  0  0  0  0  0  0  0  0  0
   -0.1123   -2.0381    0.0000 O   0  0  0  0  0  0  0  0  0  0  0  0
  1  2  2  0  0  0  0
  1  6  1  0  0  0  0
  1  7  1  0  0  0  0
  2  3  1  0  0  0  0
  2  9  1  0  0  0  0
  3  4  2  0  0  0  0
  4  5  1  0  0  0  0
  5  6  2  0  0  0  0
  7  8  1  0  0  0  0
  8  9  1  0  0  0  0
M  END
$$$$
O=c1cc(C)c2c([nH]1)ncnc2
 OpenBabel07182308452D

 12 13  0  0  0  0  0  0  0  0999 V2000
    2.8579    0.8250    0.0000 C   0  0  0  0  0  0  0  0  0  0  0  0
    1.4289    0.0000    0.0000 C   0  0  0  0  0  0  0  0  0  0  0  0
    2.8579    0.0000    0.0000 C   0  0  0  0  0  0  0  0  0  0  0  0
    2.1434   -0.4125    0.0000 C   0  0  0  0  0  0  0  0  0  0  0  0
    3.5724   -0.4125    0.0000 C   0  0  0  0  0  0  0  0  0  0  0  0
    2.1434   -1.2375    0.0000 C   0  0  0  0  0  0  0  0  0  0  0  0
    3.5724   -1.2375    0.0000 C   0  0  0  0  0  0  0  0  0  0  0  0
    0.7145   -1.2375    0.0000 C   0  0  0  0  0  0  0  0  0  0  0  0
    0.7145   -0.4125    0.0000 N   0  0  0  0  0  0  0  0  0  0  0  0
    1.4289   -1.6500    0.0000 N   0  0  0  0  0  0  0  0  0  0  0  0
    2.8579   -1.6500    0.0000 N   0  0  0  0  0  0  0  0  0  0  0  0
    4.2868   -1.6500    0.0000 O   0  0  0  0  0  0  0  0  0  0  0  0
  3  1  1  0  0  0  0
  4  2  2  0  0  0  0
  4  3  1  0  0  0  0
  5  3  2  0  0  0  0
  6  4  1  0  0  0  0
  7  5  1  0  0  0  0
  9  2  1  0  0  0  0
  9  8  2  0  0  0  0
 10  6  2  0  0  0  0
 10  8  1  0  0  0  0
 11  6  1  0  0  0  0
 11  7  1  0  0  0  0
 12  7  2  0  0  0  0
M  END
$$$$
N[C@@H]1CCCC[C@@H]1N
 OpenBabel07182308452D

 10 10  0  0  1  0  0  0  0  0999 V2000
   20.0293  -25.3368    0.0000 C   0  0  0  0  0  0  0  0  0  0  0  0
   20.0293  -26.1618    0.0000 C   0  0  2  0  0  0  0  0  0  0  0  0
   20.7718  -26.5743    0.0000 C   0  0  2  0  0  0  0  0  0  0  0  0
   21.4731  -26.1618    0.0000 C   0  0  0  0  0  0  0  0  0  0  0  0
   21.4731  -25.3368    0.0000 C   0  0  0  0  0  0  0  0  0  0  0  0
   20.7718  -24.9243    0.0000 C   0  0  0  0  0  0  0  0  0  0  0  0
   20.7718  -27.4406    0.0000 N   0  0  0  0  0  0  0  0  0  0  0  0
   19.3281  -26.5743    0.0000 N   0  0  0  0  0  0  0  0  0  0  0  0
   19.9284  -27.9484    0.0000 H   0  0  0  0  0  0  0  0  0  0  0  0
   19.3502  -27.5586    0.0000 H   0  0  0  0  0  0  0  0  0  0  0  0
  1  2  1  0  0  0  0
  1  6  1  0  0  0  0
  2  3  1  0  0  0  0
  2  8  1  6  0  0  0
  3  4  1  0  0  0  0
  3  7  1  6  0  0  0
  4  5  1  0  0  0  0
  5  6  1  0  0  0  0
  7  9  1  0  0  0  0
  8 10  1  0  0  0  0
M  END
$$$$
CN1CCc2c(C1)scn2
 OpenBabel07182308452D

 10 11  0  0  1  0  0  0  0  0999 V2000
   17.9256  -26.5743    0.0000 C   0  0  0  0  0  0  0  0  0  0  0  0
   17.1831  -26.2443    0.0000 N   0  0  0  0  0  0  0  0  0  0  0  0
   16.6056  -26.8631    0.0000 C   0  0  0  0  0  0  0  0  0  0  0  0
   17.0181  -27.5643    0.0000 C   0  0  0  0  0  0  0  0  0  0  0  0
   17.8431  -27.3993    0.0000 S   0  0  0  0  0  0  0  0  0  0  0  0
   15.7806  -26.8631    0.0000 C   0  0  0  0  0  0  0  0  0  0  0  0
   15.3681  -27.5643    0.0000 C   0  0  0  0  0  0  0  0  0  0  0  0
   15.7806  -28.2656    0.0000 N   0  0  0  0  0  0  0  0  0  0  0  0
   16.6056  -28.2656    0.0000 C   0  0  0  0  0  0  0  0  0  0  0  0
   15.3681  -29.0081    0.0000 C   0  0  0  0  0  0  0  0  0  0  0  0
  1  2  2  0  0  0  0
  1  5  1  0  0  0  0
  2  3  1  0  0  0  0
  3  4  2  0  0  0  0
  3  6  1  0  0  0  0
  4  5  1  0  0  0  0
  4  9  1  0  0  0  0
  6  7  1  0  0  0  0
  7  8  1  0  0  0  0
  8  9  1  0  0  0  0
  8 10  1  0  0  0  0
M  END
$$$$
C=C1C(=O)Nc2c1cccc2
 OpenBabel07182308452D

 12 13  0  0  0  0  0  0  0  0999 V2000
   -1.3164    0.3506    0.0000 C   0  0  0  0  0  0  0  0  0  0  0  0
   -2.0590    0.7219    0.0000 C   0  0  0  0  0  0  0  0  0  0  0  0
   -2.1827    1.5470    0.0000 C   0  0  0  0  0  0  0  0  0  0  0  0
   -3.0078    1.7120    0.0000 N   0  0  0  0  0  0  0  0  0  0  0  0
   -3.4204    0.9695    0.0000 C   0  0  0  0  0  0  0  0  0  0  0  0
   -2.8428    0.3506    0.0000 C   0  0  0  0  0  0  0  0  0  0  0  0
   -1.6052    2.1246    0.0000 O   0  0  0  0  0  0  0  0  0  0  0  0
   -4.2042    0.7632    0.0000 C   0  0  0  0  0  0  0  0  0  0  0  0
   -4.4518   -0.0206    0.0000 C   0  0  0  0  0  0  0  0  0  0  0  0
   -3.8743   -0.6393    0.0000 C   0  0  0  0  0  0  0  0  0  0  0  0
   -3.0492   -0.4332    0.0000 C   0  0  0  0  0  0  0  0  0  0  0  0
   -3.4210    2.6056    0.0000 H   0  0  0  0  0  0  0  0  0  0  0  0
  1  2  2  0  0  0  0
  2  3  1  0  0  0  0
  2  6  1  0  0  0  0
  3  4  1  0  0  0  0
  3  7  2  0  0  0  0
  4  5  1  0  0  0  0
  4 12  1  0  0  0  0
  5  6  1  0  0  0  0
  5  8  2  0  0  0  0
  6 11  2  0  0  0  0
  8  9  1  0  0  0  0
  9 10  2  0  0  0  0
 10 11  1  0  0  0  0
M  END
$$$$
Oc1cc2NC(=O)COc2cc1
 OpenBabel07182308452D

 14 15  0  0  0  0  0  0  0  0999 V2000
   -4.3081   -1.4639    0.0000 C   0  0  0  0  0  0  0  0  0  0  0  0
   -4.3081   -0.6274    0.0000 N   0  0  0  0  0  0  0  0  0  0  0  0
   -3.5970   -0.2091    0.0000 C   0  0  0  0  0  0  0  0  0  0  0  0
   -2.8860   -0.6274    0.0000 C   0  0  0  0  0  0  0  0  0  0  0  0
   -2.8860   -1.4639    0.0000 O   0  0  0  0  0  0  0  0  0  0  0  0
   -3.5970   -1.8822    0.0000 C   0  0  0  0  0  0  0  0  0  0  0  0
   -3.5970    0.6274    0.0000 C   0  0  0  0  0  0  0  0  0  0  0  0
   -2.8860    1.0456    0.0000 C   0  0  0  0  0  0  0  0  0  0  0  0
   -2.1330    0.6274    0.0000 C   0  0  0  0  0  0  0  0  0  0  0  0
   -2.1330   -0.2091    0.0000 C   0  0  0  0  0  0  0  0  0  0  0  0
   -5.0609   -1.8822    0.0000 O   0  0  0  0  0  0  0  0  0  0  0  0
   -2.8860    1.8822    0.0000 O   0  0  0  0  0  0  0  0  0  0  0  0
   -5.1627   -0.1386    0.0000 H   0  0  0  0  0  0  0  0  0  0  0  0
   -2.0745    2.3507    0.0000 H   0  0  0  0  0  0  0  0  0  0  0  0
  1  2  1  0  0  0  0
  1  6  1  0  0  0  0
  1 11  2  0  0  0  0
  2  3  1  0  0  0  0
  2 13  1  0  0  0  0
  3  4  1  0  0  0  0
  3  7  2  0  0  0  0
  4  5  1  0  0  0  0
  4 10  2  0  0  0  0
  5  6  1  0  0  0  0
  7  8  1  0  0  0  0
  8  9  2  0  0  0  0
  8 12  1  0  0  0  0
  9 10  1  0  0  0  0
 12 14  1  0  0  0  0
M  END
$$$$
CC1=C(C)C(=O)C=CC1=O
 OpenBabel07182308452D

 10 10  0  0  0  0  0  0  0  0999 V2000
   -3.9206    0.3972    0.0000 C   0  0  0  0  0  0  0  0  0  0  0  0
   -3.9125   -0.4131    0.0000 C   0  0  0  0  0  0  0  0  0  0  0  0
   -3.2179    0.8165    0.0000 C   0  0  0  0  0  0  0  0  0  0  0  0
   -3.2258   -0.8244    0.0000 C   0  0  0  0  0  0  0  0  0  0  0  0
   -2.5032    0.3972    0.0000 C   0  0  0  0  0  0  0  0  0  0  0  0
   -3.2179    1.6389    0.0000 O   0  0  0  0  0  0  0  0  0  0  0  0
   -2.5032   -0.4131    0.0000 C   0  0  0  0  0  0  0  0  0  0  0  0
   -3.2258   -1.6509    0.0000 O   0  0  0  0  0  0  0  0  0  0  0  0
   -1.7806    0.8165    0.0000 C   0  0  0  0  0  0  0  0  0  0  0  0
   -1.7806   -0.8244    0.0000 C   0  0  0  0  0  0  0  0  0  0  0  0
  1  2  2  0  0  0  0
  1  3  1  0  0  0  0
  2  4  1  0  0  0  0
  3  5  1  0  0  0  0
  3  6  2  0  0  0  0
  4  7  1  0  0  0  0
  4  8  2  0  0  0  0
  5  9  1  0  0  0  0
  5  7  2  0  0  0  0
  7 10  1  0  0  0  0
M  END
$$$$
C[C@H]1Cc2c1cccc2
 OpenBabel07182308452D

  9 10  0  0  1  0  0  0  0  0999 V2000
   31.7410  -19.3874    0.0000 C   0  0  0  0  0  0  0  0  0  0  0  0
   31.7410  -18.5624    0.0000 C   0  0  0  0  0  0  0  0  0  0  0  0
   31.0397  -18.1499    0.0000 C   0  0  0  0  0  0  0  0  0  0  0  0
   30.2972  -18.5624    0.0000 C   0  0  0  0  0  0  0  0  0  0  0  0
   30.2972  -19.3874    0.0000 C   0  0  0  0  0  0  0  0  0  0  0  0
   31.0397  -19.8000    0.0000 C   0  0  0  0  0  0  0  0  0  0  0  0
   29.4721  -18.5624    0.0000 C   0  0  2  0  0  0  0  0  0  0  0  0
   29.4721  -19.3874    0.0000 C   0  0  0  0  0  0  0  0  0  0  0  0
   28.8121  -18.0674    0.0000 C   0  0  0  0  0  0  0  0  0  0  0  0
  1  2  2  0  0  0  0
  1  6  1  0  0  0  0
  2  3  1  0  0  0  0
  3  4  2  0  0  0  0
  4  5  1  0  0  0  0
  4  7  1  0  0  0  0
  5  6  2  0  0  0  0
  5  8  1  0  0  0  0
  7  8  1  0  0  0  0
  7  9  1  6  0  0  0
M  END
$$$$
O=C1NCCc2c(C1)cccc2
 OpenBabel07182308452D

 12 13  0  0  1  0  0  0  0  0999 V2000
   25.3057  -18.4799    0.0000 N   0  0  0  0  0  0  0  0  0  0  0  0
   23.4907  -18.0674    0.0000 C   0  0  0  0  0  0  0  0  0  0  0  0
   24.1507  -17.5311    0.0000 C   0  0  0  0  0  0  0  0  0  0  0  0
   24.9345  -17.7374    0.0000 C   0  0  0  0  0  0  0  0  0  0  0  0
   23.4907  -18.8925    0.0000 C   0  0  0  0  0  0  0  0  0  0  0  0
   24.9345  -19.2224    0.0000 C   0  0  0  0  0  0  0  0  0  0  0  0
   24.1507  -19.3874    0.0000 C   0  0  0  0  0  0  0  0  0  0  0  0
   25.4547  -17.0970    0.0000 O   0  0  0  0  0  0  0  0  0  0  0  0
   22.7762  -17.6549    0.0000 C   0  0  0  0  0  0  0  0  0  0  0  0
   22.0617  -18.0674    0.0000 C   0  0  0  0  0  0  0  0  0  0  0  0
   22.0617  -18.8925    0.0000 C   0  0  0  0  0  0  0  0  0  0  0  0
   22.7762  -19.3049    0.0000 C   0  0  0  0  0  0  0  0  0  0  0  0
  1  6  1  0  0  0  0
  2  5  1  0  0  0  0
  2  3  1  0  0  0  0
  2  9  2  0  0  0  0
  3  4  1  0  0  0  0
  4  1  1  0  0  0  0
  4  8  2  0  0  0  0
  5  7  1  0  0  0  0
  5 12  2  0  0  0  0
  6  7  1  0  0  0  0
  9 10  1  0  0  0  0
 10 11  2  0  0  0  0
 11 12  1  0  0  0  0
M  END
$$$$
C[N+]1(C)CCOCC1
 OpenBabel07182308452D

  8  8  0  0  0  0  0  0  0  0999 V2000
    2.6818   -1.6807    0.0000 O   0  0  0  0  0  0  0  0  0  0  0  0
    4.2959   -1.3377    0.0000 N   0  3  0  0  0  0  0  0  0  0  0  0
    4.9090   -0.7856    0.0000 C   0  0  0  0  0  0  0  0  0  0  0  0
    3.7438   -0.7245    0.0000 C   0  0  0  0  0  0  0  0  0  0  0  0
    4.0409   -2.1223    0.0000 C   0  0  0  0  0  0  0  0  0  0  0  0
    5.0806   -1.5926    0.0000 C   0  0  0  0  0  0  0  0  0  0  0  0
    2.9368   -0.8961    0.0000 C   0  0  0  0  0  0  0  0  0  0  0  0
    3.2339   -2.2939    0.0000 C   0  0  0  0  0  0  0  0  0  0  0  0
  1  7  1  0  0  0  0
  1  8  1  0  0  0  0
  2  3  1  0  0  0  0
  2  4  1  0  0  0  0
  2  5  1  0  0  0  0
  2  6  1  0  0  0  0
  4  7  1  0  0  0  0
  5  8  1  0  0  0  0
M  CHG  1   2   1
M  END
$$$$
CC1CCC2CC1C2(C)C
 OpenBabel07182308452D

 10 11  0  0  0  0  0  0  0  0999 V2000
    6.8873    3.7651    0.0000 C   0  0  3  0  0  0  0  0  0  0  0  0
    8.3987    3.5661    0.0000 C   0  0  0  0  0  0  0  0  0  0  0  0
    7.1008    4.5621    0.0000 C   0  0  3  0  0  0  0  0  0  0  0  0
    6.4931    5.3727    0.0000 C   0  0  0  0  0  0  0  0  0  0  0  0
    5.6207    2.7394    0.0000 C   0  0  3  0  0  0  0  0  0  0  0  0
    4.9532    3.8956    0.0000 C   0  0  0  0  0  0  0  0  0  0  0  0
    4.8669    3.0751    0.0000 C   0  0  0  0  0  0  0  0  0  0  0  0
    9.1132    3.9787    0.0000 C   0  0  0  0  0  0  0  0  0  0  0  0
    8.8112    2.8516    0.0000 C   0  0  0  0  0  0  0  0  0  0  0  0
    5.7922    1.9325    0.0000 C   0  0  0  0  0  0  0  0  0  0  0  0
  1  2  1  0  0  0  0
  1  4  1  0  0  0  0
  1  5  1  0  0  0  0
  2  3  1  0  0  0  0
  2  8  1  0  0  0  0
  2  9  1  0  0  0  0
  3  4  1  0  0  0  0
  3  6  1  0  0  0  0
  5  7  1  0  0  0  0
  5 10  1  0  0  0  0
  6  7  1  0  0  0  0
M  END
$$$$
OC1=CC(=O)[C@@]2([C@H](C1)C[C@H]1C(=C2O)C(=O)c2c([C@@]1(C)O)c(Cl)ccc2O)O
 OpenBabel07182308452D

 34 37  0  0  0  0  0  0  0  0999 V2000
   -3.5775   -0.2040    0.0000 C   0  0  0  0  0  0  0  0  0  0  0  0
   -3.5775    0.6210    0.0000 C   0  0  0  0  0  0  0  0  0  0  0  0
   -2.8631    1.0333    0.0000 C   0  0  0  0  0  0  0  0  0  0  0  0
   -2.1486    0.6210    0.0000 C   0  0  0  0  0  0  0  0  0  0  0  0
   -2.1486   -0.2040    0.0000 C   0  0  0  0  0  0  0  0  0  0  0  0
   -2.8631   -0.6165    0.0000 C   0  0  0  0  0  0  0  0  0  0  0  0
   -1.4341    1.0333    0.0000 C   0  0  0  0  0  0  0  0  0  0  0  0
   -0.7197    0.6210    0.0000 C   0  0  0  0  0  0  0  0  0  0  0  0
   -0.7197   -0.2040    0.0000 C   0  0  1  0  0  0  0  0  0  0  0  0
   -1.4341   -0.6165    0.0000 C   0  0  1  0  0  0  0  0  0  0  0  0
   -0.0051    1.0333    0.0000 C   0  0  0  0  0  0  0  0  0  0  0  0
    0.7093    0.6210    0.0000 C   0  0  1  0  0  0  0  0  0  0  0  0
    0.7093   -0.2040    0.0000 C   0  0  1  0  0  0  0  0  0  0  0  0
   -0.0051   -0.6165    0.0000 C   0  0  0  0  0  0  0  0  0  0  0  0
    1.4237    1.0333    0.0000 C   0  0  0  0  0  0  0  0  0  0  0  0
    2.1382    0.6210    0.0000 C   0  0  0  0  0  0  0  0  0  0  0  0
    2.1382   -0.2040    0.0000 C   0  0  0  0  0  0  0  0  0  0  0  0
    1.4237   -0.6165    0.0000 C   0  0  0  0  0  0  0  0  0  0  0  0
   -2.8631   -1.4414    0.0000 Cl  0  0  0  0  0  0  0  0  0  0  0  0
   -2.8631    1.8583    0.0000 O   0  0  0  0  0  0  0  0  0  0  0  0
   -1.4341    1.8584    0.0000 O   0  0  0  0  0  0  0  0  0  0  0  0
   -0.0051    1.8583    0.0000 O   0  0  0  0  0  0  0  0  0  0  0  0
    1.4237    1.8584    0.0000 O   0  0  0  0  0  0  0  0  0  0  0  0
    2.8660   -0.6244    0.0000 O   0  0  0  0  0  0  0  0  0  0  0  0
   -0.7197   -0.8302    0.0000 H   0  0  0  0  0  0  0  0  0  0  0  0
    0.7093   -0.8302    0.0000 H   0  0  0  0  0  0  0  0  0  0  0  0
    0.7093    1.4459    0.0000 O   0  0  0  0  0  0  0  0  0  0  0  0
   -1.0215   -1.3310    0.0000 C   0  0  0  0  0  0  0  0  0  0  0  0
   -1.8465   -1.3310    0.0000 O   0  0  0  0  0  0  0  0  0  0  0  0
   -2.0516    2.3268    0.0000 H   0  0  0  0  0  0  0  0  0  0  0  0
    0.8064    2.3268    0.0000 H   0  0  0  0  0  0  0  0  0  0  0  0
    2.8658   -1.5614    0.0000 H   0  0  0  0  0  0  0  0  0  0  0  0
    1.5493    1.9309    0.0000 H   0  0  0  0  0  0  0  0  0  0  0  0
   -2.8165   -1.3311    0.0000 H   0  0  0  0  0  0  0  0  0  0  0  0
  1  2  2  0  0  0  0
  1  6  1  0  0  0  0
  2  3  1  0  0  0  0
  3  4  2  0  0  0  0
  3 20  1  0  0  0  0
  4  5  1  0  0  0  0
  4  7  1  0  0  0  0
  5  6  2  0  0  0  0
  5 10  1  0  0  0  0
  6 19  1  0  0  0  0
  7  8  1  0  0  0  0
  7 21  2  0  0  0  0
  8  9  1  0  0  0  0
  8 11  2  0  0  0  0
  9 10  1  6  0  0  0
  9 14  1  0  0  0  0
  9 25  1  0  0  0  0
 10 28  1  1  0  0  0
 10 29  1  0  0  0  0
 11 12  1  0  0  0  0
 11 22  1  0  0  0  0
 12 13  1  1  0  0  0
 12 15  1  0  0  0  0
 12 27  1  0  0  0  0
 13 14  1  0  0  0  0
 13 18  1  0  0  0  0
 13 26  1  1  0  0  0
 15 16  1  0  0  0  0
 15 23  2  0  0  0  0
 16 17  2  0  0  0  0
 17 18  1  0  0  0  0
 17 24  1  0  0  0  0
 20 30  1  0  0  0  0
 22 31  1  0  0  0  0
 24 32  1  0  0  0  0
 27 33  1  0  0  0  0
 29 34  1  0  0  0  0
M  END
$$$$
O=C1OCC2C1Cc1cc3OCOc3cc1C2O
 OpenBabel07182308452D

 19 22  0  0  1  0  0  0  0  0999 V2000
    4.7749    8.0968    0.0000 O   0  0  0  0  0  0  0  0  0  0  0  0
    2.3576    7.2101    0.0000 O   0  0  0  0  0  0  0  0  0  0  0  0
    5.9164    7.1778    0.0000 O   0  0  0  0  0  0  0  0  0  0  0  0
    2.8792    3.4304    0.0000 O   0  0  0  0  0  0  0  0  0  0  0  0
    1.6814    4.1219    0.0000 O   0  0  0  0  0  0  0  0  0  0  0  0
    3.7867    7.2101    0.0000 C   0  0  3  0  0  0  0  0  0  0  0  0
    4.5011    6.7976    0.0000 C   0  0  3  0  0  0  0  0  0  0  0  0
    4.5011    5.9726    0.0000 C   0  0  0  0  0  0  0  0  0  0  0  0
    3.0722    6.7976    0.0000 C   0  0  3  0  0  0  0  0  0  0  0  0
    3.7867    5.5601    0.0000 C   0  0  0  0  0  0  0  0  0  0  0  0
    3.9592    8.0118    0.0000 C   0  0  0  0  0  0  0  0  0  0  0  0
    3.0722    5.9726    0.0000 C   0  0  0  0  0  0  0  0  0  0  0  0
    5.1091    7.3480    0.0000 C   0  0  0  0  0  0  0  0  0  0  0  0
    3.7999    4.7009    0.0000 C   0  0  0  0  0  0  0  0  0  0  0  0
    2.3214    5.5544    0.0000 C   0  0  0  0  0  0  0  0  0  0  0  0
    3.0590    4.2655    0.0000 C   0  0  0  0  0  0  0  0  0  0  0  0
    2.3148    4.6951    0.0000 C   0  0  0  0  0  0  0  0  0  0  0  0
    2.0296    3.3418    0.0000 C   0  0  0  0  0  0  0  0  0  0  0  0
    2.3575    8.1801    0.0000 H   0  0  0  0  0  0  0  0  0  0  0  0
  1 11  1  0  0  0  0
  1 13  1  0  0  0  0
  2  9  1  0  0  0  0
  2 19  1  0  0  0  0
  3 13  2  0  0  0  0
  4 16  1  0  0  0  0
  4 18  1  0  0  0  0
  5 17  1  0  0  0  0
  5 18  1  0  0  0  0
  6  7  1  0  0  0  0
  6  9  1  0  0  0  0
  6 11  1  0  0  0  0
  7  8  1  0  0  0  0
  7 13  1  0  0  0  0
  8 10  1  0  0  0  0
  9 12  1  0  0  0  0
 10 12  1  0  0  0  0
 10 14  2  0  0  0  0
 12 15  2  0  0  0  0
 14 16  1  0  0  0  0
 15 17  1  0  0  0  0
 16 17  2  0  0  0  0
M  END
$$$$
OC1CCCc2c1cc1OCOc1c2
 OpenBabel07182308452D

 15 17  0  0  1  0  0  0  0  0999 V2000
   12.8066    1.8414    0.0000 O   0  0  0  0  0  0  0  0  0  0  0  0
   15.7440    4.1838    0.0000 O   0  0  0  0  0  0  0  0  0  0  0  0
   15.7440    2.8559    0.0000 O   0  0  0  0  0  0  0  0  0  0  0  0
   12.0496    3.0903    0.0000 C   0  0  0  0  0  0  0  0  0  0  0  0
   12.0496    3.9496    0.0000 C   0  0  0  0  0  0  0  0  0  0  0  0
   12.7970    4.3734    0.0000 C   0  0  0  0  0  0  0  0  0  0  0  0
   12.7970    2.6663    0.0000 C   0  0  3  0  0  0  0  0  0  0  0  0
   13.5345    3.9325    0.0000 C   0  0  0  0  0  0  0  0  0  0  0  0
   13.5345    3.1074    0.0000 C   0  0  0  0  0  0  0  0  0  0  0  0
   14.2490    4.3449    0.0000 C   0  0  0  0  0  0  0  0  0  0  0  0
   14.2490    2.6949    0.0000 C   0  0  0  0  0  0  0  0  0  0  0  0
   14.9634    3.9325    0.0000 C   0  0  0  0  0  0  0  0  0  0  0  0
   14.9634    3.1074    0.0000 C   0  0  0  0  0  0  0  0  0  0  0  0
   16.2254    3.5200    0.0000 C   0  0  0  0  0  0  0  0  0  0  0  0
   11.9723    1.3467    0.0000 H   0  0  0  0  0  0  0  0  0  0  0  0
  1  7  1  0  0  0  0
  1 15  1  0  0  0  0
  2 12  1  0  0  0  0
  2 14  1  0  0  0  0
  3 13  1  0  0  0  0
  3 14  1  0  0  0  0
  4  5  1  0  0  0  0
  4  7  1  0  0  0  0
  5  6  1  0  0  0  0
  6  8  1  0  0  0  0
  7  9  1  0  0  0  0
  8  9  1  0  0  0  0
  8 10  2  0  0  0  0
  9 11  2  0  0  0  0
 10 12  1  0  0  0  0
 11 13  1  0  0  0  0
 12 13  2  0  0  0  0
M  END
$$$$
C[C@@H]1C[C@@H]2[C@](C1)(C)C[C@@H]([C@]1([C@H]2C[C@H](F)C2=CC(=O)C=C[C@]12C)F)O
 OpenBabel07182308452D

 27 30  0  0  0  0  0  0  0  0999 V2000
   -0.4012   -0.1718    0.0000 C   0  0  1  0  0  0  0  0  0  0  0  0
    0.2974   -0.5684    0.0000 C   0  0  2  0  0  0  0  0  0  0  0  0
   -1.0968   -0.5684    0.0000 C   0  0  2  0  0  0  0  0  0  0  0  0
   -0.4012    0.6155    0.0000 C   0  0  2  0  0  0  0  0  0  0  0  0
   -0.4100   -1.0390    0.0000 F   0  0  0  0  0  0  0  0  0  0  0  0
    0.9900   -0.1718    0.0000 C   0  0  1  0  0  0  0  0  0  0  0  0
    0.2974   -1.3616    0.0000 C   0  0  0  0  0  0  0  0  0  0  0  0
   -1.0968   -1.3616    0.0000 C   0  0  0  0  0  0  0  0  0  0  0  0
   -1.8043   -0.1125    0.0000 C   0  0  0  0  0  0  0  0  0  0  0  0
   -1.0998    0.3964    0.0000 C   0  0  0  0  0  0  0  0  0  0  0  0
    0.3180    1.0565    0.0000 C   0  0  0  0  0  0  0  0  0  0  0  0
   -1.1560    1.1159    0.0000 O   0  0  0  0  0  0  0  0  0  0  0  0
    0.9900    0.6533    0.0000 C   0  0  2  0  0  0  0  0  0  0  0  0
    1.7748   -0.4267    0.0000 C   0  0  0  0  0  0  0  0  0  0  0  0
   -0.4100   -1.7909    0.0000 C   0  0  1  0  0  0  0  0  0  0  0  0
   -1.8043   -1.7909    0.0000 C   0  0  0  0  0  0  0  0  0  0  0  0
   -2.4910   -0.5684    0.0000 C   0  0  0  0  0  0  0  0  0  0  0  0
    1.7748    0.9082    0.0000 C   0  0  0  0  0  0  0  0  0  0  0  0
    0.9900    1.6309    0.0000 C   0  0  0  0  0  0  0  0  0  0  0  0
    2.2597    0.2407    0.0000 C   0  0  2  0  0  0  0  0  0  0  0  0
   -0.4100   -2.6494    0.0000 F   0  0  0  0  0  0  0  0  0  0  0  0
   -2.4910   -1.3616    0.0000 C   0  0  0  0  0  0  0  0  0  0  0  0
    3.0050    0.2371    0.0000 C   0  0  0  0  0  0  0  0  0  0  0  0
   -3.0918   -1.7257    0.0000 O   0  0  0  0  0  0  0  0  0  0  0  0
    0.2974    0.2567    0.0000 H   0  0  0  0  0  0  0  0  0  0  0  0
    0.9900   -0.9969    0.0000 H   0  0  0  0  0  0  0  0  0  0  0  0
   -1.0961    2.0840    0.0000 H   0  0  0  0  0  0  0  0  0  0  0  0
  1  2  1  1  0  0  0
  1  5  1  0  0  0  0
  2  6  1  6  0  0  0
  2  7  1  0  0  0  0
  2 25  1  0  0  0  0
  3  1  1  6  0  0  0
  3  8  1  0  0  0  0
  3  9  1  0  0  0  0
  3 10  1  0  0  0  0
  4  1  1  1  0  0  0
  4 11  1  0  0  0  0
  4 12  1  0  0  0  0
  6 13  1  6  0  0  0
  6 14  1  0  0  0  0
  6 26  1  0  0  0  0
  7 15  1  0  0  0  0
  8 16  2  0  0  0  0
  8 15  1  0  0  0  0
  9 17  2  0  0  0  0
 11 13  1  0  0  0  0
 12 27  1  0  0  0  0
 13 18  1  0  0  0  0
 13 19  1  1  0  0  0
 14 20  1  0  0  0  0
 15 21  1  6  0  0  0
 16 22  1  0  0  0  0
 17 22  1  0  0  0  0
 18 20  1  0  0  0  0
 20 23  1  6  0  0  0
 22 24  2  0  0  0  0
M  END
$$$$
CN1CCC[C@H]2[C@H]1Cc1cccc(c1C2)O
 OpenBabel07182308452D

 19 21  0  0  1  0  0  0  0  0999 V2000
   23.3843  -18.8859    0.0000 C   0  0  0  0  0  0  0  0  0  0  0  0
   23.3843  -19.7109    0.0000 C   0  0  0  0  0  0  0  0  0  0  0  0
   24.0988  -20.1234    0.0000 C   0  0  0  0  0  0  0  0  0  0  0  0
   24.8133  -19.7109    0.0000 C   0  0  0  0  0  0  0  0  0  0  0  0
   24.8133  -18.8859    0.0000 C   0  0  0  0  0  0  0  0  0  0  0  0
   24.0988  -18.4733    0.0000 C   0  0  0  0  0  0  0  0  0  0  0  0
   25.5278  -20.1234    0.0000 C   0  0  0  0  0  0  0  0  0  0  0  0
   26.2423  -19.7109    0.0000 C   0  0  2  0  0  0  0  0  0  0  0  0
   26.2423  -18.8859    0.0000 C   0  0  1  0  0  0  0  0  0  0  0  0
   25.5278  -18.4733    0.0000 C   0  0  0  0  0  0  0  0  0  0  0  0
   26.9568  -20.1234    0.0000 N   0  0  0  0  0  0  0  0  0  0  0  0
   27.6712  -19.7109    0.0000 C   0  0  0  0  0  0  0  0  0  0  0  0
   27.6712  -18.8859    0.0000 C   0  0  0  0  0  0  0  0  0  0  0  0
   26.9568  -18.4733    0.0000 C   0  0  0  0  0  0  0  0  0  0  0  0
   24.0988  -17.6485    0.0000 O   0  0  0  0  0  0  0  0  0  0  0  0
   26.9568  -20.9482    0.0000 C   0  0  0  0  0  0  0  0  0  0  0  0
   26.2423  -20.5359    0.0000 H   0  0  0  0  0  0  0  0  0  0  0  0
   26.2423  -18.0609    0.0000 H   0  0  0  0  0  0  0  0  0  0  0  0
   24.9103  -17.1800    0.0000 H   0  0  0  0  0  0  0  0  0  0  0  0
  1  2  2  0  0  0  0
  1  6  1  0  0  0  0
  2  3  1  0  0  0  0
  3  4  2  0  0  0  0
  4  5  1  0  0  0  0
  4  7  1  0  0  0  0
  5  6  2  0  0  0  0
  5 10  1  0  0  0  0
  6 15  1  0  0  0  0
  7  8  1  0  0  0  0
  8  9  1  1  0  0  0
  8 11  1  0  0  0  0
  8 17  1  0  0  0  0
  9 10  1  0  0  0  0
  9 14  1  0  0  0  0
  9 18  1  6  0  0  0
 11 12  1  0  0  0  0
 11 16  1  0  0  0  0
 12 13  1  0  0  0  0
 13 14  1  0  0  0  0
 15 19  1  0  0  0  0
M  END
$$$$
O=C1NCCSSC[C@H](N)C(=O)N[C@@H](C)C(=O)N[C@@H](C)C(=O)N[C@@H](C)C(=O)N[C@H](C(=O)N[C@H](C(=O)N[C@H](C(=O)NCC(=O)N[C@H](C(=O)NCC(=O)NC1)C)C)C)C
 OpenBabel07182308452D

 69 69  0  0  0  0  0  0  0  0999 V2000
   -0.2898   -4.5373    0.0000 O   0  0  0  0  0  0  0  0  0  0  0  0
    1.1392   -3.7124    0.0000 N   0  0  0  0  0  0  0  0  0  0  0  0
   -1.0041   -3.2998    0.0000 N   0  0  0  0  0  0  0  0  0  0  0  0
    0.4248   -3.2998    0.0000 C   0  0  0  0  0  0  0  0  0  0  0  0
   -0.2898   -3.7123    0.0000 C   0  0  0  0  0  0  0  0  0  0  0  0
    1.8537   -2.4749    0.0000 O   0  0  0  0  0  0  0  0  0  0  0  0
    3.2827   -3.2999    0.0000 N   0  0  0  0  0  0  0  0  0  0  0  0
    2.5682   -3.7124    0.0000 C   0  0  2  0  0  0  0  0  0  0  0  0
    1.8537   -3.2705    0.0000 C   0  0  0  0  0  0  0  0  0  0  0  0
    2.5682   -4.5374    0.0000 C   0  0  0  0  0  0  0  0  0  0  0  0
    3.9970   -4.5374    0.0000 O   0  0  0  0  0  0  0  0  0  0  0  0
    4.7117   -3.3000    0.0000 C   0  0  0  0  0  0  0  0  0  0  0  0
    3.9970   -3.7124    0.0000 C   0  0  0  0  0  0  0  0  0  0  0  0
    4.7119   -2.4750    0.0000 N   0  0  0  0  0  0  0  0  0  0  0  0
    3.2829   -2.4748    0.0000 O   0  0  0  0  0  0  0  0  0  0  0  0
    4.7121   -0.8250    0.0000 N   0  0  0  0  0  0  0  0  0  0  0  0
    3.9976   -1.2374    0.0000 C   0  0  2  0  0  0  0  0  0  0  0  0
    3.9975   -2.0624    0.0000 C   0  0  0  0  0  0  0  0  0  0  0  0
    3.2831   -0.8248    0.0000 C   0  0  0  0  0  0  0  0  0  0  0  0
    3.9977    0.4125    0.0000 O   0  0  0  0  0  0  0  0  0  0  0  0
    5.4267    0.4124    0.0000 C   0  0  2  0  0  0  0  0  0  0  0  0
    4.7121    0.0000    0.0000 C   0  0  0  0  0  0  0  0  0  0  0  0
    6.1411   -0.0001    0.0000 C   0  0  0  0  0  0  0  0  0  0  0  0
    5.4267    1.2374    0.0000 N   0  0  0  0  0  0  0  0  0  0  0  0
    3.9978    1.2374    0.0000 O   0  0  0  0  0  0  0  0  0  0  0  0
    3.9978    2.8875    0.0000 N   0  0  0  0  0  0  0  0  0  0  0  0
    4.7122    2.4750    0.0000 C   0  0  2  0  0  0  0  0  0  0  0  0
    4.7122    1.6499    0.0000 C   0  0  0  0  0  0  0  0  0  0  0  0
    5.4267    2.8874    0.0000 C   0  0  0  0  0  0  0  0  0  0  0  0
    3.2834    1.6500    0.0000 O   0  0  0  0  0  0  0  0  0  0  0  0
    1.8543    2.4750    0.0000 N   0  0  0  0  0  0  0  0  0  0  0  0
    2.5688    2.8875    0.0000 C   0  0  2  0  0  0  0  0  0  0  0  0
    3.2834    2.4750    0.0000 C   0  0  0  0  0  0  0  0  0  0  0  0
    1.1399    2.8875    0.0000 C   0  0  0  0  0  0  0  0  0  0  0  0
    0.4253    2.4748    0.0000 C   0  0  1  0  0  0  0  0  0  0  0  0
   -0.2890    2.8875    0.0000 N   0  0  0  0  0  0  0  0  0  0  0  0
    0.3959    1.6794    0.0000 C   0  0  0  0  0  0  0  0  0  0  0  0
    1.1399    3.7125    0.0000 O   0  0  0  0  0  0  0  0  0  0  0  0
   -1.7180    2.8875    0.0000 C   0  0  2  0  0  0  0  0  0  0  0  0
   -1.0034    2.4750    0.0000 C   0  0  0  0  0  0  0  0  0  0  0  0
   -1.7180    3.7125    0.0000 C   0  0  0  0  0  0  0  0  0  0  0  0
   -2.4324    2.4750    0.0000 N   0  0  0  0  0  0  0  0  0  0  0  0
   -1.0034    1.6500    0.0000 O   0  0  0  0  0  0  0  0  0  0  0  0
   -2.4324    1.6500    0.0000 C   0  0  0  0  0  0  0  0  0  0  0  0
   -3.1469    1.2375    0.0000 C   0  0  1  0  0  0  0  0  0  0  0  0
   -3.8614    1.6500    0.0000 N   0  0  0  0  0  0  0  0  0  0  0  0
    2.5687    3.7125    0.0000 C   0  0  0  0  0  0  0  0  0  0  0  0
   -2.4331   -2.4747    0.0000 N   0  0  0  0  0  0  0  0  0  0  0  0
   -3.1181   -2.0033    0.0000 C   0  0  0  0  0  0  0  0  0  0  0  0
   -1.7186   -3.7123    0.0000 C   0  0  0  0  0  0  0  0  0  0  0  0
   -2.4331   -3.2703    0.0000 C   0  0  0  0  0  0  0  0  0  0  0  0
   -1.7180    1.2375    0.0000 O   0  0  0  0  0  0  0  0  0  0  0  0
   -3.1538   -3.6720    0.0000 O   0  0  0  0  0  0  0  0  0  0  0  0
   -3.1469    0.4125    0.0000 C   0  0  0  0  0  0  0  0  0  0  0  0
   -3.1181   -1.1783    0.0000 C   0  0  0  0  0  0  0  0  0  0  0  0
   -2.4036   -0.7658    0.0000 S   0  0  0  0  0  0  0  0  0  0  0  0
   -2.4325    0.0000    0.0000 S   0  0  0  0  0  0  0  0  0  0  0  0
    1.1540   -4.6968    0.0000 H   0  0  0  0  0  0  0  0  0  0  0  0
   -1.0040   -2.3153    0.0000 H   0  0  0  0  0  0  0  0  0  0  0  0
    3.2828   -2.3154    0.0000 H   0  0  0  0  0  0  0  0  0  0  0  0
    5.5646   -1.9829    0.0000 H   0  0  0  0  0  0  0  0  0  0  0  0
    5.5647   -1.3173    0.0000 H   0  0  0  0  0  0  0  0  0  0  0  0
    6.2793    1.7297    0.0000 H   0  0  0  0  0  0  0  0  0  0  0  0
    3.9978    3.8720    0.0000 H   0  0  0  0  0  0  0  0  0  0  0  0
    1.8543    1.4905    0.0000 H   0  0  0  0  0  0  0  0  0  0  0  0
   -0.2889    3.8720    0.0000 H   0  0  0  0  0  0  0  0  0  0  0  0
   -3.2850    2.9672    0.0000 H   0  0  0  0  0  0  0  0  0  0  0  0
   -3.8764    2.6344    0.0000 H   0  0  0  0  0  0  0  0  0  0  0  0
   -1.5617   -2.0166    0.0000 H   0  0  0  0  0  0  0  0  0  0  0  0
  1  5  2  0  0  0  0
  2 58  1  0  0  0  0
  3 59  1  0  0  0  0
  4  2  1  0  0  0  0
  5  3  1  0  0  0  0
  5  4  1  0  0  0  0
  6  9  2  0  0  0  0
  7 60  1  0  0  0  0
  8  7  1  0  0  0  0
  8 10  1  1  0  0  0
  9  2  1  0  0  0  0
  9  8  1  0  0  0  0
 11 13  2  0  0  0  0
 12 14  1  0  0  0  0
 13  7  1  0  0  0  0
 13 12  1  0  0  0  0
 14 61  1  0  0  0  0
 15 18  2  0  0  0  0
 16 62  1  0  0  0  0
 17 16  1  0  0  0  0
 17 19  1  6  0  0  0
 18 14  1  0  0  0  0
 18 17  1  0  0  0  0
 20 22  2  0  0  0  0
 21 24  1  0  0  0  0
 21 23  1  1  0  0  0
 22 16  1  0  0  0  0
 22 21  1  0  0  0  0
 24 63  1  0  0  0  0
 25 28  2  0  0  0  0
 26 64  1  0  0  0  0
 27 26  1  0  0  0  0
 27 29  1  1  0  0  0
 28 24  1  0  0  0  0
 28 27  1  0  0  0  0
 30 33  2  0  0  0  0
 31 65  1  0  0  0  0
 32 31  1  0  0  0  0
 32 47  1  1  0  0  0
 33 26  1  0  0  0  0
 33 32  1  0  0  0  0
 34 35  1  0  0  0  0
 34 31  1  0  0  0  0
 35 36  1  0  0  0  0
 35 37  1  6  0  0  0
 36 66  1  0  0  0  0
 38 34  2  0  0  0  0
 39 40  1  0  0  0  0
 39 41  1  1  0  0  0
 39 42  1  0  0  0  0
 40 36  1  0  0  0  0
 42 44  1  0  0  0  0
 42 67  1  0  0  0  0
 43 40  2  0  0  0  0
 44 45  1  0  0  0  0
 44 52  2  0  0  0  0
 45 46  1  6  0  0  0
 45 54  1  0  0  0  0
 46 68  1  0  0  0  0
 48 51  1  0  0  0  0
 48 69  1  0  0  0  0
 49 48  1  0  0  0  0
 49 55  1  0  0  0  0
 50  3  1  0  0  0  0
 51 50  1  0  0  0  0
 51 53  2  0  0  0  0
 54 57  1  0  0  0  0
 55 56  1  0  0  0  0
 56 57  1  0  0  0  0
M  END
$$$$
Fc1c(C)cccc1Cl
 OpenBabel07182308452D

  9  9  0  0  1  0  0  0  0  0999 V2000
   -0.7145    4.5375    0.0000 C   0  0  0  0  0  0  0  0  0  0  0  0
   -0.7145    3.7125    0.0000 C   0  0  0  0  0  0  0  0  0  0  0  0
    0.0000    4.9500    0.0000 C   0  0  0  0  0  0  0  0  0  0  0  0
   -0.0000    2.4750    0.0000 C   0  0  0  0  0  0  0  0  0  0  0  0
   -0.0000    3.3000    0.0000 C   0  0  0  0  0  0  0  0  0  0  0  0
    0.7145    4.5375    0.0000 C   0  0  0  0  0  0  0  0  0  0  0  0
    0.7145    3.7125    0.0000 C   0  0  0  0  0  0  0  0  0  0  0  0
    1.4289    4.9500    0.0000 Cl  0  0  0  0  0  0  0  0  0  0  0  0
    1.4289    3.3000    0.0000 F   0  0  0  0  0  0  0  0  0  0  0  0
  2  1  2  0  0  0  0
  3  1  1  0  0  0  0
  5  2  1  0  0  0  0
  5  4  1  0  0  0  0
  6  3  2  0  0  0  0
  7  5  2  0  0  0  0
  7  6  1  0  0  0  0
  8  6  1  0  0  0  0
  9  7  1  0  0  0  0
M  END
$$$$
ON=O
 OpenBabel07182308452D

  4  3  0  0  0  0  0  0  0  0999 V2000
   -0.7101   -0.2242    0.0000 O   0  0  0  0  0  0  0  0  0  0  0  0
    0.7101   -0.1644    0.0000 O   0  0  0  0  0  0  0  0  0  0  0  0
   -0.0164    0.2242    0.0000 N   0  0  0  0  0  0  0  0  0  0  0  0
   -1.5441    0.2030    0.0000 H   0  0  0  0  0  0  0  0  0  0  0  0
  1  3  1  0  0  0  0
  1  4  1  0  0  0  0
  2  3  2  0  0  0  0
M  END
$$$$
Ic1cc(I)c2c(c1O)nccc2
 OpenBabel07182308452D

 14 15  0  0  0  0  0  0  0  0999 V2000
   -1.0717    0.4125    0.0000 C   0  0  0  0  0  0  0  0  0  0  0  0
   -1.0717   -0.4125    0.0000 C   0  0  0  0  0  0  0  0  0  0  0  0
   -0.3572   -0.8250    0.0000 C   0  0  0  0  0  0  0  0  0  0  0  0
    0.3572   -0.4125    0.0000 C   0  0  0  0  0  0  0  0  0  0  0  0
    0.3572    0.4125    0.0000 C   0  0  0  0  0  0  0  0  0  0  0  0
   -0.3572    0.8250    0.0000 C   0  0  0  0  0  0  0  0  0  0  0  0
    1.0717   -0.8250    0.0000 C   0  0  0  0  0  0  0  0  0  0  0  0
    1.7861   -0.4125    0.0000 C   0  0  0  0  0  0  0  0  0  0  0  0
    1.7861    0.4125    0.0000 C   0  0  0  0  0  0  0  0  0  0  0  0
    1.0717    0.8250    0.0000 N   0  0  0  0  0  0  0  0  0  0  0  0
   -0.3572    1.6498    0.0000 O   0  0  0  0  0  0  0  0  0  0  0  0
   -1.7861    0.8250    0.0000 I   0  0  0  0  0  0  0  0  0  0  0  0
   -0.3572   -1.6498    0.0000 I   0  0  0  0  0  0  0  0  0  0  0  0
    0.4543    2.1183    0.0000 H   0  0  0  0  0  0  0  0  0  0  0  0
  1  2  2  0  0  0  0
  1  6  1  0  0  0  0
  1 12  1  0  0  0  0
  2  3  1  0  0  0  0
  3  4  2  0  0  0  0
  3 13  1  0  0  0  0
  4  5  1  0  0  0  0
  4  7  1  0  0  0  0
  5  6  2  0  0  0  0
  5 10  1  0  0  0  0
  6 11  1  0  0  0  0
  7  8  2  0  0  0  0
  8  9  1  0  0  0  0
  9 10  2  0  0  0  0
 11 14  1  0  0  0  0
M  END
$$$$
[N-]=C=[N-]
 OpenBabel07182308452D

  3  2  0  0  0  0  0  0  0  0999 V2000
    0.0000   -0.3903    0.0000 C   0  0  0  0  0  0  0  0  0  0  0  0
    0.8250   -0.3903    0.0000 N   0  5  0  0  0  0  0  0  0  0  0  0
   -0.8250   -0.3903    0.0000 N   0  5  0  0  0  0  0  0  0  0  0  0
  1  2  2  0  0  0  0
  1  3  2  0  0  0  0
M  CHG  2   2  -1   3  -1
M  END
$$$$
CC1OC(C)OC(O1)C
 OpenBabel07182308452D

  9  9  0  0  0  0  0  0  0  0999 V2000
    2.1434   -0.4125    0.0000 C   0  0  0  0  0  0  0  0  0  0  0  0
    0.7145    2.0625    0.0000 C   0  0  0  0  0  0  0  0  0  0  0  0
   -0.7145   -0.4125    0.0000 C   0  0  0  0  0  0  0  0  0  0  0  0
    1.4289    0.0000    0.0000 C   0  0  3  0  0  0  0  0  0  0  0  0
    0.7145    1.2375    0.0000 C   0  0  3  0  0  0  0  0  0  0  0  0
    0.0000    0.0000    0.0000 C   0  0  3  0  0  0  0  0  0  0  0  0
    1.4289    0.8250    0.0000 O   0  0  0  0  0  0  0  0  0  0  0  0
    0.7145   -0.4125    0.0000 O   0  0  0  0  0  0  0  0  0  0  0  0
    0.0000    0.8250    0.0000 O   0  0  0  0  0  0  0  0  0  0  0  0
  4  1  1  0  0  0  0
  5  2  1  0  0  0  0
  6  3  1  0  0  0  0
  7  4  1  0  0  0  0
  7  5  1  0  0  0  0
  8  4  1  0  0  0  0
  8  6  1  0  0  0  0
  9  5  1  0  0  0  0
  9  6  1  0  0  0  0
M  END
$$$$
O[C@H]1Cc2ccccc2Nc2c1cccc2
 OpenBabel07182308452D

 16 18  0  0  0  0  0  0  0  0999 V2000
   -0.7858   -1.5392    0.0000 O   0  0  0  0  0  0  0  0  0  0  0  0
    0.0000    1.0169    0.0000 N   0  0  0  0  0  0  0  0  0  0  0  0
   -0.7442    0.6470    0.0000 C   0  0  0  0  0  0  0  0  0  0  0  0
    0.7442    0.6470    0.0000 C   0  0  0  0  0  0  0  0  0  0  0  0
   -0.9060   -0.1803    0.0000 C   0  0  0  0  0  0  0  0  0  0  0  0
    0.9060   -0.1387    0.0000 C   0  0  0  0  0  0  0  0  0  0  0  0
   -0.4114   -0.7996    0.0000 C   0  0  2  0  0  0  0  0  0  0  0  0
    0.4114   -0.7996    0.0000 C   0  0  0  0  0  0  0  0  0  0  0  0
   -1.3636    1.2249    0.0000 C   0  0  0  0  0  0  0  0  0  0  0  0
   -1.6917   -0.4252    0.0000 C   0  0  0  0  0  0  0  0  0  0  0  0
    1.2804    1.2665    0.0000 C   0  0  0  0  0  0  0  0  0  0  0  0
    1.7333   -0.3420    0.0000 C   0  0  0  0  0  0  0  0  0  0  0  0
   -2.1447    0.9337    0.0000 C   0  0  0  0  0  0  0  0  0  0  0  0
   -2.3112    0.1524    0.0000 C   0  0  0  0  0  0  0  0  0  0  0  0
    2.1031    1.0169    0.0000 C   0  0  0  0  0  0  0  0  0  0  0  0
    2.3112    0.2356    0.0000 C   0  0  0  0  0  0  0  0  0  0  0  0
  2  3  1  0  0  0  0
  2  4  1  0  0  0  0
  3  5  1  0  0  0  0
  3  9  2  0  0  0  0
  4  6  1  0  0  0  0
  4 11  2  0  0  0  0
  5  7  1  0  0  0  0
  5 10  2  0  0  0  0
  6  8  1  0  0  0  0
  6 12  2  0  0  0  0
  7  1  1  6  0  0  0
  7  8  1  0  0  0  0
  9 13  1  0  0  0  0
 10 14  1  0  0  0  0
 11 15  1  0  0  0  0
 12 16  1  0  0  0  0
 13 14  2  0  0  0  0
 15 16  2  0  0  0  0
M  END
$$$$
S[Au]
 OpenBabel07182308452D

  2  1  0  0  0  0  0  0  0  0999 V2000
    2.1454    0.8216    0.0000 Au  0  0  0  0  0  0  0  0  0  0  0  0
    1.4331    1.2379    0.0000 S   0  0  0  0  0  0  0  0  0  0  0  0
  1  2  1  0  0  0  0
M  END
$$$$
O=C1CCC2=C3CC[C@]4([C@H]([C@@H]3CCC2=C1)CC[C@@H]4O)C
 OpenBabel07182308452D

 23 26  0  0  0  0  0  0  0  0999 V2000
   -0.3957   -0.5343    0.0000 C   0  0  0  0  0  0  0  0  0  0  0  0
    0.2736   -0.9524    0.0000 C   0  0  1  0  0  0  0  0  0  0  0  0
   -0.3957    0.3024    0.0000 C   0  0  0  0  0  0  0  0  0  0  0  0
   -1.1485   -0.9524    0.0000 C   0  0  0  0  0  0  0  0  0  0  0  0
    0.2736   -1.7473    0.0000 C   0  0  0  0  0  0  0  0  0  0  0  0
    0.3155    0.6788    0.0000 C   0  0  0  0  0  0  0  0  0  0  0  0
   -1.1485   -1.7473    0.0000 C   0  0  0  0  0  0  0  0  0  0  0  0
   -1.8178   -0.5343    0.0000 C   0  0  0  0  0  0  0  0  0  0  0  0
   -0.4374   -2.1656    0.0000 C   0  0  0  0  0  0  0  0  0  0  0  0
   -1.8178   -2.1656    0.0000 C   0  0  0  0  0  0  0  0  0  0  0  0
   -2.5290   -0.9524    0.0000 C   0  0  0  0  0  0  0  0  0  0  0  0
   -2.5290   -1.7473    0.0000 C   0  0  0  0  0  0  0  0  0  0  0  0
   -3.2402   -2.1656    0.0000 O   0  0  0  0  0  0  0  0  0  0  0  0
    0.2736   -0.0321    0.0000 H   0  0  0  0  0  0  0  0  0  0  0  0
    1.0266    1.2645    0.0000 C   0  0  0  0  0  0  0  0  0  0  0  0
    1.0685   -1.3708    0.0000 H   0  0  0  0  0  0  0  0  0  0  0  0
    1.8112    0.5155    0.0000 C   0  0  2  0  0  0  0  0  0  0  0  0
    1.0266    0.2606    0.0000 C   0  0  2  0  0  0  0  0  0  0  0  0
    1.0267   -0.5343    0.0000 C   0  0  1  0  0  0  0  0  0  0  0  0
    1.8113   -0.8192    0.0000 C   0  0  0  0  0  0  0  0  0  0  0  0
    2.2962   -0.1517    0.0000 C   0  0  0  0  0  0  0  0  0  0  0  0
    2.5257    0.9280    0.0000 O   0  0  0  0  0  0  0  0  0  0  0  0
    3.3657    0.4430    0.0000 H   0  0  0  0  0  0  0  0  0  0  0  0
  1  2  1  0  0  0  0
  1  3  1  0  0  0  0
  1  4  2  0  0  0  0
  2  5  1  0  0  0  0
  2 14  1  0  0  0  0
  2 19  1  6  0  0  0
  3  6  1  0  0  0  0
  4  7  1  0  0  0  0
  4  8  1  0  0  0  0
  5  9  1  0  0  0  0
  6 18  1  0  0  0  0
  7 10  2  0  0  0  0
  7  9  1  0  0  0  0
  8 11  1  0  0  0  0
 10 12  1  0  0  0  0
 11 12  1  0  0  0  0
 12 13  2  0  0  0  0
 17 18  1  1  0  0  0
 17 21  1  0  0  0  0
 17 22  1  0  0  0  0
 18 15  1  0  0  0  0
 18 19  1  1  0  0  0
 19 16  1  6  0  0  0
 19 20  1  0  0  0  0
 20 21  1  0  0  0  0
 22 23  1  0  0  0  0
M  END
$$$$
O=C1CC[C@]2(C(=C1)C(=C[C@@H]1[C@@H]2CC[C@]2([C@H]1CC[C@H]2C)C)C)C
 OpenBabel07182308452D

 25 28  0  0  0  0  0  0  0  0999 V2000
    1.4260    1.6594    0.0000 C   0  0  0  0  0  0  0  0  0  0  0  0
    1.4260    0.8343    0.0000 C   0  0  2  0  0  0  0  0  0  0  0  0
    1.4260    0.0010    0.0000 C   0  0  2  0  0  0  0  0  0  0  0  0
    2.1385    1.2499    0.0000 C   0  0  2  0  0  0  0  0  0  0  0  0
    0.7135    1.2499    0.0000 C   0  0  0  0  0  0  0  0  0  0  0  0
    0.7135   -0.4146    0.0000 C   0  0  1  0  0  0  0  0  0  0  0  0
    2.8510    0.0010    0.0000 C   0  0  0  0  0  0  0  0  0  0  0  0
    2.8530    1.6614    0.0000 C   0  0  0  0  0  0  0  0  0  0  0  0
    2.8510    0.8343    0.0000 C   0  0  0  0  0  0  0  0  0  0  0  0
    0.0010    0.8343    0.0000 C   0  0  0  0  0  0  0  0  0  0  0  0
    0.0010    0.0010    0.0000 C   0  0  2  0  0  0  0  0  0  0  0  0
    0.7135   -1.2458    0.0000 C   0  0  0  0  0  0  0  0  0  0  0  0
   -0.7114   -0.4146    0.0000 C   0  0  2  0  0  0  0  0  0  0  0  0
    0.0010   -1.6614    0.0000 C   0  0  0  0  0  0  0  0  0  0  0  0
   -0.7114    0.4104    0.0000 C   0  0  0  0  0  0  0  0  0  0  0  0
   -0.7114   -1.2458    0.0000 C   0  0  0  0  0  0  0  0  0  0  0  0
   -1.4261    0.0010    0.0000 C   0  0  0  0  0  0  0  0  0  0  0  0
    0.0010   -2.4865    0.0000 C   0  0  0  0  0  0  0  0  0  0  0  0
   -1.4261   -1.6614    0.0000 C   0  0  0  0  0  0  0  0  0  0  0  0
   -2.1385   -0.4146    0.0000 C   0  0  0  0  0  0  0  0  0  0  0  0
   -2.1385   -1.2458    0.0000 C   0  0  0  0  0  0  0  0  0  0  0  0
   -2.8530   -1.6573    0.0000 O   0  0  0  0  0  0  0  0  0  0  0  0
    0.7135    0.4104    0.0000 H   0  0  0  0  0  0  0  0  0  0  0  0
    0.0010   -0.8240    0.0000 H   0  0  0  0  0  0  0  0  0  0  0  0
    1.4260   -0.8240    0.0000 H   0  0  0  0  0  0  0  0  0  0  0  0
  2  1  1  0  0  0  0
  2  3  1  1  0  0  0
  2  5  1  0  0  0  0
  3  6  1  1  0  0  0
  3  7  1  0  0  0  0
  3 25  1  0  0  0  0
  4  2  1  6  0  0  0
  4  8  1  0  0  0  0
  4  9  1  0  0  0  0
  5 10  1  0  0  0  0
  6 11  1  6  0  0  0
  6 12  1  0  0  0  0
  6 23  1  0  0  0  0
  7  9  1  0  0  0  0
 11 10  1  0  0  0  0
 11 13  1  1  0  0  0
 11 24  1  0  0  0  0
 12 14  2  0  0  0  0
 13 15  1  1  0  0  0
 13 16  1  0  0  0  0
 13 17  1  0  0  0  0
 14 16  1  0  0  0  0
 14 18  1  0  0  0  0
 16 19  2  0  0  0  0
 17 20  1  0  0  0  0
 19 21  1  0  0  0  0
 20 21  1  0  0  0  0
 21 22  2  0  0  0  0
M  END
$$$$
Oc1ccc2c(c1)[nH]c(=O)cc2
 OpenBabel07182308452D

 13 14  0  0  0  0  0  0  0  0999 V2000
   -2.4543   -1.0312    0.0000 C   0  0  0  0  0  0  0  0  0  0  0  0
   -2.4543   -0.2062    0.0000 C   0  0  0  0  0  0  0  0  0  0  0  0
   -3.1557    0.2062    0.0000 C   0  0  0  0  0  0  0  0  0  0  0  0
   -3.1557   -1.4437    0.0000 C   0  0  0  0  0  0  0  0  0  0  0  0
   -3.8981   -1.0312    0.0000 C   0  0  0  0  0  0  0  0  0  0  0  0
   -3.8981   -0.2062    0.0000 C   0  0  0  0  0  0  0  0  0  0  0  0
   -5.3007   -0.1649    0.0000 C   0  0  0  0  0  0  0  0  0  0  0  0
   -5.3007   -0.9899    0.0000 C   0  0  0  0  0  0  0  0  0  0  0  0
   -4.5994   -1.4437    0.0000 N   0  0  0  0  0  0  0  0  0  0  0  0
   -6.0432   -1.4025    0.0000 O   0  0  0  0  0  0  0  0  0  0  0  0
   -1.7531   -1.4437    0.0000 O   0  0  0  0  0  0  0  0  0  0  0  0
   -4.5994    0.2062    0.0000 C   0  0  0  0  0  0  0  0  0  0  0  0
   -4.6204   -2.4280    0.0000 H   0  0  0  0  0  0  0  0  0  0  0  0
  1 11  1  0  0  0  0
  1  2  2  0  0  0  0
  2  3  1  0  0  0  0
  3  6  2  0  0  0  0
  4  1  1  0  0  0  0
  5  4  2  0  0  0  0
  5  6  1  0  0  0  0
  6 12  1  0  0  0  0
  7  8  1  0  0  0  0
  8  9  1  0  0  0  0
  8 10  2  0  0  0  0
  9  5  1  0  0  0  0
  9 13  1  0  0  0  0
 12  7  2  0  0  0  0
M  END
$$$$
[Cr+3]
 OpenBabel07182308452D

  1  0  0  0  0  0  0  0  0  0999 V2000
   17.9800  -17.7117    0.0000 Cr  0  1  0  0  0 15  0  0  0  0  0  0
M  CHG  1   1   3
M  END
$$$$
[Cu]
 OpenBabel07182308452D

  1  0  0  0  0  0  0  0  0  0999 V2000
    0.0000    0.0000    0.0000 Cu  0  0  0  0  0 15  0  0  0  0  0  0
M  END
$$$$
Cl[Cu]Cl
 OpenBabel07182308452D

  3  2  0  0  0  0  0  0  0  0999 V2000
    1.2375   -0.7145    0.0000 Cl  0  0  0  0  0  0  0  0  0  0  0  0
    1.9520   -1.1270    0.0000 Cu  0  0  0  0  0  0  0  0  0  0  0  0
    2.6664   -0.7145    0.0000 Cl  0  0  0  0  0  0  0  0  0  0  0  0
  1  2  1  0  0  0  0
  2  3  1  0  0  0  0
M  END
$$$$
CN1CCN(C)CCNCCN(CC1)C
 OpenBabel07182308452D

 15 15  0  0  0  0  0  0  0  0999 V2000
   -1.2375   -1.5469    0.0000 C   0  0  0  0  0  0  0  0  0  0  0  0
   -0.8250   -0.8044    0.0000 N   0  0  0  0  0  0  0  0  0  0  0  0
    0.8250   -0.8456    0.0000 N   0  0  0  0  0  0  0  0  0  0  0  0
   -0.8250    0.8456    0.0000 N   0  0  0  0  0  0  0  0  0  0  0  0
   -1.2375    1.5469    0.0000 C   0  0  0  0  0  0  0  0  0  0  0  0
    1.2375    1.5469    0.0000 C   0  0  0  0  0  0  0  0  0  0  0  0
    0.8250    0.8456    0.0000 N   0  0  0  0  0  0  0  0  0  0  0  0
    1.5263   -0.4332    0.0000 C   0  0  0  0  0  0  0  0  0  0  0  0
    1.5263    0.3918    0.0000 C   0  0  0  0  0  0  0  0  0  0  0  0
   -0.4125   -1.5469    0.0000 C   0  0  0  0  0  0  0  0  0  0  0  0
    0.4125   -1.5469    0.0000 C   0  0  0  0  0  0  0  0  0  0  0  0
   -1.5676    0.4332    0.0000 C   0  0  0  0  0  0  0  0  0  0  0  0
   -1.5676   -0.3918    0.0000 C   0  0  0  0  0  0  0  0  0  0  0  0
    0.4125    1.5469    0.0000 C   0  0  0  0  0  0  0  0  0  0  0  0
   -0.4125    1.5469    0.0000 C   0  0  0  0  0  0  0  0  0  0  0  0
  1  2  1  0  0  0  0
  2 10  1  0  0  0  0
  3  8  1  0  0  0  0
  4  5  1  0  0  0  0
  4 12  1  0  0  0  0
  6  7  1  0  0  0  0
  7 14  1  0  0  0  0
  8  9  1  0  0  0  0
  9  7  1  0  0  0  0
 10 11  1  0  0  0  0
 11  3  1  0  0  0  0
 12 13  1  0  0  0  0
 13  2  1  0  0  0  0
 14 15  1  0  0  0  0
 15  4  1  0  0  0  0
M  END
$$$$
C=C1C=CC(=[NH2+])C=C1
 OpenBabel07182308452D

  8  8  0  0  0  0  0  0  0  0999 V2000
    0.3612    0.4169    0.0000 C   0  0  0  0  0  0  0  0  0  0  0  0
   -0.3660    0.8388    0.0000 C   0  0  0  0  0  0  0  0  0  0  0  0
   -2.5187    2.0994    0.0000 N   0  3  0  0  0  0  0  0  0  0  0  0
   -1.7963    1.6775    0.0000 C   0  0  0  0  0  0  0  0  0  0  0  0
   -1.0787    0.4411    0.0000 C   0  0  0  0  0  0  0  0  0  0  0  0
   -0.3660    1.6484    0.0000 C   0  0  0  0  0  0  0  0  0  0  0  0
   -1.1224    2.0751    0.0000 C   0  0  0  0  0  0  0  0  0  0  0  0
   -1.8060    0.8630    0.0000 C   0  0  0  0  0  0  0  0  0  0  0  0
  2  1  2  0  0  0  0
  3  4  2  0  0  0  0
  4  7  1  0  0  0  0
  4  8  1  0  0  0  0
  5  2  1  0  0  0  0
  6  2  1  0  0  0  0
  7  6  2  0  0  0  0
  8  5  2  0  0  0  0
M  CHG  1   3   1
M  END
$$$$
Nc1c(C)cc(c(c1C)Br)C
 OpenBabel07182308452D

 12 12  0  0  0  0  0  0  0  0999 V2000
   -0.7366   -1.4289    0.0000 C   0  0  0  0  0  0  0  0  0  0  0  0
   -1.5616   -1.4289    0.0000 C   0  0  0  0  0  0  0  0  0  0  0  0
   -1.9741   -2.1434    0.0000 C   0  0  0  0  0  0  0  0  0  0  0  0
   -2.7991   -2.1434    0.0000 C   0  0  0  0  0  0  0  0  0  0  0  0
   -3.2116   -1.4289    0.0000 C   0  0  0  0  0  0  0  0  0  0  0  0
   -2.7991   -0.7144    0.0000 C   0  0  0  0  0  0  0  0  0  0  0  0
   -1.9741   -0.7144    0.0000 C   0  0  0  0  0  0  0  0  0  0  0  0
   -1.5616    0.0000    0.0000 N   0  0  0  0  0  0  0  0  0  0  0  0
   -3.2116    0.0000    0.0000 C   0  0  0  0  0  0  0  0  0  0  0  0
   -4.0366   -1.4289    0.0000 Br  0  0  0  0  0  0  0  0  0  0  0  0
   -3.2116   -2.8578    0.0000 C   0  0  0  0  0  0  0  0  0  0  0  0
   -2.0538    0.8526    0.0000 H   0  0  0  0  0  0  0  0  0  0  0  0
  1  2  1  0  0  0  0
  2  3  2  0  0  0  0
  2  7  1  0  0  0  0
  3  4  1  0  0  0  0
  4  5  2  0  0  0  0
  4 11  1  0  0  0  0
  5  6  1  0  0  0  0
  5 10  1  0  0  0  0
  6  7  2  0  0  0  0
  6  9  1  0  0  0  0
  7  8  1  0  0  0  0
  8 12  1  0  0  0  0
M  END
$$$$
[Tc]
 OpenBabel07182308452D

  1  0  0  0  0  0  0  0  0  0999 V2000
    4.0366   -0.2174    0.0000 Tc  0  0  0  0  0 15  0  0  0  0  0  0
M  END
$$$$
[O-]P(=O)(C)[O-]
 OpenBabel07182308452D

  5  4  0  0  0  0  0  0  0  0999 V2000
   -0.5045    1.1269    0.0000 C   0  0  0  0  0  0  0  0  0  0  0  0
   -2.1545    1.1269    0.0000 O   0  5  0  0  0  0  0  0  0  0  0  0
   -1.3295    1.9519    0.0000 O   0  5  0  0  0  0  0  0  0  0  0  0
   -1.3295    0.3019    0.0000 O   0  0  0  0  0  0  0  0  0  0  0  0
   -1.3295    1.1269    0.0000 P   0  0  0  0  0  0  0  0  0  0  0  0
  5  1  1  0  0  0  0
  5  2  1  0  0  0  0
  5  3  1  0  0  0  0
  5  4  2  0  0  0  0
M  CHG  2   2  -1   3  -1
M  END
$$$$
[O-]P(=O)[O-]
 OpenBabel07182308452D

  4  3  0  0  0  0  0  0  0  0999 V2000
    0.3204   -0.3019    0.0000 O   0  5  0  0  0  0  0  0  0  0  0  0
    0.6224    0.8250    0.0000 O   0  5  0  0  0  0  0  0  0  0  0  0
   -0.8065    0.0000    0.0000 O   0  0  0  0  0  0  0  0  0  0  0  0
   -0.0920    0.4125    0.0000 P   0  0  0  0  0  0  0  0  0  0  0  0
  4  1  1  0  0  0  0
  4  2  1  0  0  0  0
  4  3  2  0  0  0  0
M  CHG  2   1  -1   2  -1
M  END
$$$$
[98Tc+4]
 OpenBabel07182308452D

  1  0  0  0  0  0  0  0  0  0999 V2000
   -2.9795    1.1269    0.0000 Tc  0  0  0  0  0 15  0  0  0  0  0  0
M  ISO  1   1  98
M  CHG  1   1   4
M  END
$$$$
[99Tc]
 OpenBabel07182308452D

  1  0  0  0  0  0  0  0  0  0999 V2000
    2.3644   -0.0965    0.0000 Tc  0  0  0  0  0 15  0  0  0  0  0  0
M  ISO  1   1  99
M  END
$$$$
CC[18F]
 OpenBabel07182308452D

  3  2  0  0  0  0  0  0  0  0999 V2000
    1.0051   -2.0027    0.0000 C   0  0  0  0  0  0  0  0  0  0  0  0
    1.7122   -2.3971    0.0000 C   0  0  0  0  0  0  0  0  0  0  0  0
    2.4074   -1.9816    0.0000 F   0  0  0  0  0  0  0  0  0  0  0  0
  1  2  1  0  0  0  0
  2  3  1  0  0  0  0
M  ISO  1   3  18
M  END
$$$$
C[18F]
 OpenBabel07182308452D

  4  3  0  0  0  0  0  0  0  0999 V2000
    2.7221    6.5812    0.0000 F   0  0  0  0  0  0  0  0  0  0  0  0
    2.0077    6.1687    0.0000 C   0  0  0  0  0  0  0  0  0  0  0  0
    1.8327    6.6494    0.0000 H   0  0  0  0  0  0  0  0  0  0  0  0
    1.5039    6.0799    0.0000 H   0  0  0  0  0  0  0  0  0  0  0  0
  1  2  1  0  0  0  0
  2  3  1  0  0  0  0
  2  4  1  0  0  0  0
M  ISO  1   1  18
M  END
$$$$
[18F]c1ccccc1
 OpenBabel07182308452D

  7  7  0  0  0  0  0  0  0  0999 V2000
    1.0818   -0.4093    0.0000 C   0  0  0  0  0  0  0  0  0  0  0  0
    0.6693    0.3051    0.0000 C   0  0  0  0  0  0  0  0  0  0  0  0
    1.0818    1.0195    0.0000 C   0  0  0  0  0  0  0  0  0  0  0  0
    1.9068    1.0196    0.0000 C   0  0  0  0  0  0  0  0  0  0  0  0
    2.3193    0.3051    0.0000 C   0  0  0  0  0  0  0  0  0  0  0  0
    1.9068   -0.4093    0.0000 C   0  0  0  0  0  0  0  0  0  0  0  0
    2.3193   -1.1238    0.0000 F   0  0  0  0  0  0  0  0  0  0  0  0
  1  2  2  0  0  0  0
  1  6  1  0  0  0  0
  2  3  1  0  0  0  0
  3  4  2  0  0  0  0
  4  5  1  0  0  0  0
  5  6  2  0  0  0  0
  6  7  1  0  0  0  0
M  ISO  1   7  18
M  END
$$$$
Oc1ccc2c(c1)scn2
 OpenBabel07182308452D

 11 12  0  0  0  0  0  0  0  0999 V2000
   -0.1556    0.3050    0.0000 C   0  0  0  0  0  0  0  0  0  0  0  0
   -0.6333   -0.3526    0.0000 S   0  0  0  0  0  0  0  0  0  0  0  0
   -1.4065   -0.1014    0.0000 C   0  0  0  0  0  0  0  0  0  0  0  0
   -1.4066    0.7114    0.0000 C   0  0  0  0  0  0  0  0  0  0  0  0
   -0.6335    0.9626    0.0000 N   0  0  0  0  0  0  0  0  0  0  0  0
   -2.1209   -0.5140    0.0000 C   0  0  0  0  0  0  0  0  0  0  0  0
   -2.8354   -0.1016    0.0000 C   0  0  0  0  0  0  0  0  0  0  0  0
   -2.8355    0.7112    0.0000 C   0  0  0  0  0  0  0  0  0  0  0  0
   -2.1211    1.1238    0.0000 C   0  0  0  0  0  0  0  0  0  0  0  0
   -3.5672   -0.5243    0.0000 O   0  0  0  0  0  0  0  0  0  0  0  0
   -4.3788   -0.0560    0.0000 H   0  0  0  0  0  0  0  0  0  0  0  0
  1  2  1  0  0  0  0
  1  5  2  0  0  0  0
  2  3  1  0  0  0  0
  3  4  1  0  0  0  0
  3  6  2  0  0  0  0
  4  5  1  0  0  0  0
  4  9  2  0  0  0  0
  6  7  1  0  0  0  0
  7  8  2  0  0  0  0
  7 10  1  0  0  0  0
  8  9  1  0  0  0  0
 10 11  1  0  0  0  0
M  END
$$$$
N#N
 OpenBabel07182308452D

  2  1  0  0  0  0  0  0  0  0999 V2000
    1.6500    0.0000    0.0000 N   0  0  0  0  0  0  0  0  0  0  0  0
    2.4750    0.0000    0.0000 N   0  0  0  0  0  0  0  0  0  0  0  0
  1  2  3  0  0  0  0
M  END
$$$$
[He]
 OpenBabel07182308452D

  1  0  0  0  0  0  0  0  0  0999 V2000
    0.0000    0.0000    0.0000 He  0  0  0  0  0  0  0  0  0  0  0  0
M  END
$$$$
O=C=O
 OpenBabel07182308452D

  3  2  0  0  0  0  0  0  0  0999 V2000
   17.9274  -10.8152    0.0000 C   0  0  0  0  0  0  0  0  0  0  0  0
   17.1024  -10.8152    0.0000 O   0  0  0  0  0  0  0  0  0  0  0  0
   18.7524  -10.8152    0.0000 O   0  0  0  0  0  0  0  0  0  0  0  0
  1  2  2  0  0  0  0
  1  3  2  0  0  0  0
M  END
$$$$
Nc1cccc2c1c(O)ccc2
 OpenBabel07182308452D

 15 16  0  0  0  0  0  0  0  0999 V2000
   -5.2595   -1.3439    0.0000 C   0  0  0  0  0  0  0  0  0  0  0  0
   -4.4334   -1.3576    0.0000 C   0  0  0  0  0  0  0  0  0  0  0  0
   -4.0076   -0.6477    0.0000 C   0  0  0  0  0  0  0  0  0  0  0  0
   -4.4137    0.0773    0.0000 C   0  0  0  0  0  0  0  0  0  0  0  0
   -5.6605   -0.6195    0.0000 C   0  0  0  0  0  0  0  0  0  0  0  0
   -5.2388    0.0860    0.0000 C   0  0  0  0  0  0  0  0  0  0  0  0
   -5.6388    0.8018    0.0000 C   0  0  0  0  0  0  0  0  0  0  0  0
   -6.4605    0.8134    0.0000 C   0  0  0  0  0  0  0  0  0  0  0  0
   -6.8804    0.1033    0.0000 C   0  0  0  0  0  0  0  0  0  0  0  0
   -6.4780   -0.6096    0.0000 C   0  0  0  0  0  0  0  0  0  0  0  0
   -3.9926    0.7873    0.0000 O   0  0  0  0  0  0  0  0  0  0  0  0
   -5.2161    1.5109    0.0000 N   0  0  0  0  0  0  0  0  0  0  0  0
   -3.0557    0.7763    0.0000 H   0  0  0  0  0  0  0  0  0  0  0  0
   -4.2317    1.4972    0.0000 H   0  0  0  0  0  0  0  0  0  0  0  0
   -5.6964    2.3703    0.0000 H   0  0  0  0  0  0  0  0  0  0  0  0
  1  2  1  0  0  0  0
  2  3  2  0  0  0  0
  3  4  1  0  0  0  0
  4  6  2  0  0  0  0
  4 11  1  0  0  0  0
  5  1  2  0  0  0  0
  5  6  1  0  0  0  0
  6  7  1  0  0  0  0
  7  8  2  0  0  0  0
  7 12  1  0  0  0  0
  8  9  1  0  0  0  0
  9 10  2  0  0  0  0
 10  5  1  0  0  0  0
 11 13  1  0  0  0  0
 12 14  1  0  0  0  0
 12 15  1  0  0  0  0
M  END
$$$$
CCP
 OpenBabel07182308452D

  3  2  0  0  0  0  0  0  0  0999 V2000
   -8.4376   -0.9302    0.0000 C   0  0  0  0  0  0  0  0  0  0  0  0
   -7.6580   -0.6602    0.0000 C   0  0  0  0  0  0  0  0  0  0  0  0
   -7.5021    0.1498    0.0000 P   0  0  0  0  0  0  0  0  0  0  0  0
  2  1  1  0  0  0  0
  3  2  1  0  0  0  0
M  END
$$$$
[98Tc]
 OpenBabel07182308452D

  1  0  0  0  0  0  0  0  0  0999 V2000
   -4.1696   -4.4706    0.0000 Tc  0  0  0  0  0 15  0  0  0  0  0  0
M  ISO  1   1  98
M  END
$$$$
[C-]#[N+]C
 OpenBabel07182308452D

  3  2  0  0  0  0  0  0  0  0999 V2000
   -4.0071    1.2729    0.0000 C   0  5  0  0  0  0  0  0  0  0  0  0
   -5.6571    1.2729    0.0000 C   0  0  0  0  0  0  0  0  0  0  0  0
   -4.8321    1.2729    0.0000 N   0  3  0  0  0  0  0  0  0  0  0  0
  3  1  3  0  0  0  0
  3  2  1  0  0  0  0
M  CHG  2   1  -1   3   1
M  END
$$$$
[Tc+]
 OpenBabel07182308452D

  1  0  0  0  0  0  0  0  0  0999 V2000
   -3.1821    1.2729    0.0000 Tc  0  3  0  0  0 15  0  0  0  0  0  0
M  CHG  1   1   1
M  END
$$$$
[O-]P(=O)(O)[O-]
 OpenBabel07182308452D

  5  4  0  0  0  0  0  0  0  0999 V2000
   -0.9760    0.3019    0.0000 O   0  5  0  0  0  0  0  0  0  0  0  0
   -0.1509    0.3019    0.0000 P   0  0  0  0  0  0  0  0  0  0  0  0
   -0.1509    1.1270    0.0000 O   0  0  0  0  0  0  0  0  0  0  0  0
   -0.1509   -0.5230    0.0000 O   0  5  0  0  0  0  0  0  0  0  0  0
    0.6741    0.3019    0.0000 O   0  0  0  0  0  0  0  0  0  0  0  0
  1  2  1  0  0  0  0
  2  3  2  0  0  0  0
  2  4  1  0  0  0  0
  2  5  1  0  0  0  0
M  CHG  2   1  -1   4  -1
M  END
$$$$
[99Tc+4]
 OpenBabel07182308452D

  1  0  0  0  0  0  0  0  0  0999 V2000
   -1.8010    0.3019    0.0000 Tc  0  0  0  0  0 15  0  0  0  0  0  0
M  ISO  1   1  99
M  CHG  1   1   4
M  END
$$$$
C/C=C\1/c2ccccc2SCc2c1cccc2
 OpenBabel07182308452D

 17 19  0  0  0  0  0  0  0  0999 V2000
   -0.2849    0.1127    0.0000 C   0  0  0  0  0  0  0  0  0  0  0  0
   -1.0009    0.4396    0.0000 C   0  0  0  0  0  0  0  0  0  0  0  0
    0.4175    0.4396    0.0000 C   0  0  0  0  0  0  0  0  0  0  0  0
   -0.7224    1.9553    0.0000 S   0  0  0  0  0  0  0  0  0  0  0  0
   -1.2130    1.2615    0.0000 C   0  0  0  0  0  0  0  0  0  0  0  0
   -0.2849   -0.7092    0.0000 C   0  0  0  0  0  0  0  0  0  0  0  0
    0.6517    1.2925    0.0000 C   0  0  0  0  0  0  0  0  0  0  0  0
    0.1790    1.9553    0.0000 C   0  0  0  0  0  0  0  0  0  0  0  0
    0.4441   -1.1334    0.0000 C   0  0  0  0  0  0  0  0  0  0  0  0
    1.0097   -0.1171    0.0000 C   0  0  0  0  0  0  0  0  0  0  0  0
   -1.5974   -0.1392    0.0000 C   0  0  0  0  0  0  0  0  0  0  0  0
   -2.0129    1.4782    0.0000 C   0  0  0  0  0  0  0  0  0  0  0  0
    1.4339    1.5002    0.0000 C   0  0  0  0  0  0  0  0  0  0  0  0
    1.7963    0.0994    0.0000 C   0  0  0  0  0  0  0  0  0  0  0  0
   -2.3840    0.0861    0.0000 C   0  0  0  0  0  0  0  0  0  0  0  0
   -2.5917    0.8903    0.0000 C   0  0  0  0  0  0  0  0  0  0  0  0
    2.0172    0.9036    0.0000 C   0  0  0  0  0  0  0  0  0  0  0  0
  2  1  1  0  0  0  0
  3  1  1  0  0  0  0
  4  5  1  0  0  0  0
  4  8  1  0  0  0  0
  5  2  1  0  0  0  0
  6  1  2  0  0  0  0
  7  3  1  0  0  0  0
  8  7  1  0  0  0  0
  9  6  1  0  0  0  0
 10  3  2  0  0  0  0
 11  2  2  0  0  0  0
 12  5  2  0  0  0  0
 13  7  2  0  0  0  0
 14 10  1  0  0  0  0
 15 11  1  0  0  0  0
 16 15  2  0  0  0  0
 16 12  1  0  0  0  0
 17 14  2  0  0  0  0
 17 13  1  0  0  0  0
M  END
$$$$
Nc1ccc2c(c1)cccc2
 OpenBabel07182308452D

 12 13  0  0  0  0  0  0  0  0999 V2000
   -2.8878    1.0313    0.0000 C   0  0  0  0  0  0  0  0  0  0  0  0
   -2.8878    1.8564    0.0000 C   0  0  0  0  0  0  0  0  0  0  0  0
   -2.1865    2.2690    0.0000 C   0  0  0  0  0  0  0  0  0  0  0  0
   -1.4439    1.8564    0.0000 C   0  0  0  0  0  0  0  0  0  0  0  0
   -1.4439    1.0313    0.0000 C   0  0  0  0  0  0  0  0  0  0  0  0
   -2.1865    0.6188    0.0000 C   0  0  0  0  0  0  0  0  0  0  0  0
   -0.7425    2.2690    0.0000 C   0  0  0  0  0  0  0  0  0  0  0  0
   -0.0412    1.8564    0.0000 C   0  0  0  0  0  0  0  0  0  0  0  0
   -0.0412    1.0313    0.0000 C   0  0  0  0  0  0  0  0  0  0  0  0
   -0.7425    0.6188    0.0000 C   0  0  0  0  0  0  0  0  0  0  0  0
   -3.5891    2.2690    0.0000 N   0  0  0  0  0  0  0  0  0  0  0  0
   -3.5891    3.2535    0.0000 H   0  0  0  0  0  0  0  0  0  0  0  0
  1  2  2  0  0  0  0
  1  6  1  0  0  0  0
  2  3  1  0  0  0  0
  2 11  1  0  0  0  0
  3  4  2  0  0  0  0
  4  5  1  0  0  0  0
  4  7  1  0  0  0  0
  5  6  2  0  0  0  0
  5 10  1  0  0  0  0
  7  8  2  0  0  0  0
  8  9  1  0  0  0  0
  9 10  2  0  0  0  0
 11 12  1  0  0  0  0
M  END
$$$$
CC1CNCCO1
 OpenBabel07182308452D

  8  8  0  0  0  0  0  0  0  0999 V2000
    0.3712    0.2062    0.0000 C   0  0  0  0  0  0  0  0  0  0  0  0
    1.0725   -0.2062    0.0000 C   0  0  3  0  0  0  0  0  0  0  0  0
    1.7737    0.2062    0.0000 O   0  0  0  0  0  0  0  0  0  0  0  0
    2.5162   -0.2062    0.0000 C   0  0  0  0  0  0  0  0  0  0  0  0
    2.5162   -1.0312    0.0000 C   0  0  0  0  0  0  0  0  0  0  0  0
    1.7737   -1.4437    0.0000 N   0  0  0  0  0  0  0  0  0  0  0  0
    1.0725   -1.0312    0.0000 C   0  0  0  0  0  0  0  0  0  0  0  0
    1.7611   -2.4636    0.0000 H   0  0  0  0  0  0  0  0  0  0  0  0
  1  2  1  0  0  0  0
  2  3  1  0  0  0  0
  2  7  1  0  0  0  0
  3  4  1  0  0  0  0
  4  5  1  0  0  0  0
  5  6  1  0  0  0  0
  6  7  1  0  0  0  0
  6  8  1  0  0  0  0
M  END
$$$$
Cc1nnc2n1C[C@H]1[C@@H]2CCC1
 OpenBabel07182308452D

 14 16  0  0  0  0  0  0  0  0999 V2000
   -4.8570    1.3014    0.0000 C   0  0  0  0  0  0  0  0  0  0  0  0
   -4.3806    1.9753    0.0000 C   0  0  0  0  0  0  0  0  0  0  0  0
   -4.3806    0.6390    0.0000 C   0  0  0  0  0  0  0  0  0  0  0  0
   -3.5904    1.7197    0.0000 C   0  0  1  0  0  0  0  0  0  0  0  0
   -3.5904    0.8946    0.0000 C   0  0  2  0  0  0  0  0  0  0  0  0
   -2.8119    1.9753    0.0000 C   0  0  0  0  0  0  0  0  0  0  0  0
   -2.3239    1.3014    0.0000 N   0  0  0  0  0  0  0  0  0  0  0  0
   -2.8119    0.6390    0.0000 C   0  0  0  0  0  0  0  0  0  0  0  0
   -2.3239    2.6377    0.0000 N   0  0  0  0  0  0  0  0  0  0  0  0
   -1.5338    2.3820    0.0000 N   0  0  0  0  0  0  0  0  0  0  0  0
   -1.5338    1.5570    0.0000 C   0  0  0  0  0  0  0  0  0  0  0  0
   -3.5904    2.5447    0.0000 H   0  0  0  0  0  0  0  0  0  0  0  0
   -3.5904    0.0696    0.0000 H   0  0  0  0  0  0  0  0  0  0  0  0
   -0.8598    1.0806    0.0000 C   0  0  0  0  0  0  0  0  0  0  0  0
  1  2  1  0  0  0  0
  1  3  1  0  0  0  0
  2  4  1  0  0  0  0
  3  5  1  0  0  0  0
  4  6  1  0  0  0  0
  4  5  1  1  0  0  0
  4 12  1  0  0  0  0
  5  8  1  0  0  0  0
  5 13  1  1  0  0  0
  6  9  2  0  0  0  0
  6  7  1  0  0  0  0
  7  8  1  0  0  0  0
  7 11  1  0  0  0  0
  9 10  1  0  0  0  0
 10 11  2  0  0  0  0
 11 14  1  0  0  0  0
M  END
$$$$
O=C1CCCC1
 OpenBabel07182308452D

  6  6  0  0  0  0  0  0  0  0999 V2000
   -0.3020    2.1965    0.0000 C   0  0  0  0  0  0  0  0  0  0  0  0
   -0.0470    2.9812    0.0000 C   0  0  0  0  0  0  0  0  0  0  0  0
   -1.1270    2.1965    0.0000 C   0  0  0  0  0  0  0  0  0  0  0  0
   -0.7145    3.4661    0.0000 C   0  0  0  0  0  0  0  0  0  0  0  0
   -1.3819    2.9812    0.0000 C   0  0  0  0  0  0  0  0  0  0  0  0
   -2.1665    3.2361    0.0000 O   0  0  0  0  0  0  0  0  0  0  0  0
  2  1  1  0  0  0  0
  3  1  1  0  0  0  0
  4  2  1  0  0  0  0
  5  3  1  0  0  0  0
  5  4  1  0  0  0  0
  6  5  2  0  0  0  0
M  END
$$$$
Cc1c(N)cccc1Cl
 OpenBabel07182308452D

 10 10  0  0  0  0  0  0  0  0999 V2000
    0.7145    3.7125    0.0000 C   0  0  0  0  0  0  0  0  0  0  0  0
    0.7145    6.1875    0.0000 C   0  0  0  0  0  0  0  0  0  0  0  0
    0.0000    5.7750    0.0000 C   0  0  0  0  0  0  0  0  0  0  0  0
    1.4289    5.7750    0.0000 C   0  0  0  0  0  0  0  0  0  0  0  0
    0.7145    4.5375    0.0000 C   0  0  0  0  0  0  0  0  0  0  0  0
    0.0000    4.9500    0.0000 C   0  0  0  0  0  0  0  0  0  0  0  0
    1.4289    4.9500    0.0000 C   0  0  0  0  0  0  0  0  0  0  0  0
   -0.7145    4.5375    0.0000 Cl  0  0  0  0  0  0  0  0  0  0  0  0
    2.1434    4.5375    0.0000 N   0  0  0  0  0  0  0  0  0  0  0  0
    2.9960    5.0298    0.0000 H   0  0  0  0  0  0  0  0  0  0  0  0
  3  2  2  0  0  0  0
  4  2  1  0  0  0  0
  5  1  1  0  0  0  0
  6  3  1  0  0  0  0
  6  5  2  0  0  0  0
  7  4  2  0  0  0  0
  7  5  1  0  0  0  0
  8  6  1  0  0  0  0
  9  7  1  0  0  0  0
  9 10  1  0  0  0  0
M  END
$$$$
O=C1COc2c(N1)cccc2
 OpenBabel07182308452D

 12 13  0  0  0  0  0  0  0  0999 V2000
   -0.9296   -0.6218    0.0000 O   0  0  0  0  0  0  0  0  0  0  0  0
    0.5172   -2.2719    0.0000 O   0  0  0  0  0  0  0  0  0  0  0  0
   -0.9296   -2.2719    0.0000 N   0  0  0  0  0  0  0  0  0  0  0  0
   -0.2278   -1.0343    0.0000 C   0  0  0  0  0  0  0  0  0  0  0  0
   -0.2278   -1.8594    0.0000 C   0  0  0  0  0  0  0  0  0  0  0  0
   -1.6315   -1.0343    0.0000 C   0  0  0  0  0  0  0  0  0  0  0  0
   -1.6315   -1.8594    0.0000 C   0  0  0  0  0  0  0  0  0  0  0  0
   -2.3765   -0.6218    0.0000 C   0  0  0  0  0  0  0  0  0  0  0  0
   -2.3765   -2.2719    0.0000 C   0  0  0  0  0  0  0  0  0  0  0  0
   -3.0785   -1.0343    0.0000 C   0  0  0  0  0  0  0  0  0  0  0  0
   -3.0785   -1.8594    0.0000 C   0  0  0  0  0  0  0  0  0  0  0  0
   -0.9296   -3.2564    0.0000 H   0  0  0  0  0  0  0  0  0  0  0  0
  1  4  1  0  0  0  0
  1  6  1  0  0  0  0
  2  5  2  0  0  0  0
  3  5  1  0  0  0  0
  3  7  1  0  0  0  0
  3 12  1  0  0  0  0
  4  5  1  0  0  0  0
  6  7  1  0  0  0  0
  6  8  2  0  0  0  0
  7  9  2  0  0  0  0
  8 10  1  0  0  0  0
  9 11  1  0  0  0  0
 10 11  2  0  0  0  0
M  END
$$$$
Clc1ccc2c(c1)C(=Cc1c(S2)cccc1)O
 OpenBabel07182308452D

 17 19  0  0  0  0  0  0  0  0999 V2000
    0.0414    0.0686    0.0000 C   0  0  0  0  0  0  0  0  0  0  0  0
   -0.4554    0.7312    0.0000 C   0  0  0  0  0  0  0  0  0  0  0  0
   -0.2484    1.5179    0.0000 C   0  0  0  0  0  0  0  0  0  0  0  0
    0.4969    1.8491    0.0000 S   0  0  0  0  0  0  0  0  0  0  0  0
    0.8695    0.0686    0.0000 C   0  0  0  0  0  0  0  0  0  0  0  0
    1.2422    1.4765    0.0000 C   0  0  0  0  0  0  0  0  0  0  0  0
    1.4078    0.6898    0.0000 C   0  0  0  0  0  0  0  0  0  0  0  0
   -0.8695    2.0975    0.0000 C   0  0  0  0  0  0  0  0  0  0  0  0
   -1.6561    1.8491    0.0000 C   0  0  0  0  0  0  0  0  0  0  0  0
   -1.8632    1.0624    0.0000 C   0  0  0  0  0  0  0  0  0  0  0  0
   -1.2421    0.4828    0.0000 C   0  0  0  0  0  0  0  0  0  0  0  0
    2.1945    0.4413    0.0000 C   0  0  0  0  0  0  0  0  0  0  0  0
    2.8156    0.9797    0.0000 C   0  0  0  0  0  0  0  0  0  0  0  0
    2.6500    1.8077    0.0000 C   0  0  0  0  0  0  0  0  0  0  0  0
    1.8633    2.0562    0.0000 C   0  0  0  0  0  0  0  0  0  0  0  0
   -2.6499    0.8141    0.0000 Cl  0  0  0  0  0  0  0  0  0  0  0  0
   -0.3312   -0.6766    0.0000 O   0  0  0  0  0  0  0  0  0  0  0  0
  1  5  2  0  0  0  0
  1  2  1  0  0  0  0
  1 17  1  0  0  0  0
  2  3  1  0  0  0  0
  2 11  2  0  0  0  0
  3  4  1  0  0  0  0
  3  8  2  0  0  0  0
  4  6  1  0  0  0  0
  5  7  1  0  0  0  0
  6  7  1  0  0  0  0
  6 15  2  0  0  0  0
  7 12  2  0  0  0  0
  8  9  1  0  0  0  0
  9 10  2  0  0  0  0
 10 11  1  0  0  0  0
 10 16  1  0  0  0  0
 12 13  1  0  0  0  0
 13 14  2  0  0  0  0
 14 15  1  0  0  0  0
M  END
$$$$
O=N=O
 OpenBabel07182308452D

  3  2  0  0  0  0  0  0  0  0999 V2000
    8.5737   15.6750    0.0000 N   0  0  0  0  0  0  0  0  0  0  0  0
    9.2881   16.0875    0.0000 O   0  0  0  0  0  0  0  0  0  0  0  0
    7.8592   16.0875    0.0000 O   0  0  0  0  0  0  0  0  0  0  0  0
  2  1  2  0  0  0  0
  3  1  2  0  0  0  0
M  END
$$$$
c1ccc2c(c1)[s+]c1c(n2)cccc1
 OpenBabel07182308452D

 14 16  0  0  0  0  0  0  0  0999 V2000
   12.3935   -9.1090    0.0000 C   0  0  0  0  0  0  0  0  0  0  0  0
   12.3935   -8.2854    0.0000 C   0  0  0  0  0  0  0  0  0  0  0  0
   13.1099   -9.6212    0.0000 S   0  3  0  0  0  0  0  0  0  0  0  0
   11.6807   -9.5243    0.0000 C   0  0  0  0  0  0  0  0  0  0  0  0
   13.1099   -7.8632    0.0000 N   0  0  0  0  0  0  0  0  0  0  0  0
   11.6807   -7.8771    0.0000 C   0  0  0  0  0  0  0  0  0  0  0  0
   13.8331   -9.1125    0.0000 C   0  0  0  0  0  0  0  0  0  0  0  0
   10.9746   -9.1090    0.0000 C   0  0  0  0  0  0  0  0  0  0  0  0
   13.8296   -8.2820    0.0000 C   0  0  0  0  0  0  0  0  0  0  0  0
   10.9746   -8.2854    0.0000 C   0  0  0  0  0  0  0  0  0  0  0  0
   14.5597   -9.5243    0.0000 C   0  0  0  0  0  0  0  0  0  0  0  0
   14.5459   -7.8529    0.0000 C   0  0  0  0  0  0  0  0  0  0  0  0
   15.2865   -9.1055    0.0000 C   0  0  0  0  0  0  0  0  0  0  0  0
   15.2761   -8.2647    0.0000 C   0  0  0  0  0  0  0  0  0  0  0  0
  1  2  1  0  0  0  0
  1  3  2  0  0  0  0
  1  4  1  0  0  0  0
  2  5  2  0  0  0  0
  2  6  1  0  0  0  0
  3  7  1  0  0  0  0
  4  8  2  0  0  0  0
  5  9  1  0  0  0  0
  6 10  2  0  0  0  0
  7 11  1  0  0  0  0
  7  9  2  0  0  0  0
  8 10  1  0  0  0  0
  9 12  1  0  0  0  0
 11 13  2  0  0  0  0
 12 14  2  0  0  0  0
 13 14  1  0  0  0  0
M  CHG  1   3   1
M  END
$$$$
Cc1ncc(c(n1)Cl)N
 OpenBabel07182308452D

 10 10  0  0  0  0  0  0  0  0999 V2000
    5.0013    5.9411    0.0000 C   0  0  0  0  0  0  0  0  0  0  0  0
    4.2868    5.5286    0.0000 C   0  0  0  0  0  0  0  0  0  0  0  0
    2.8579    4.7036    0.0000 C   0  0  0  0  0  0  0  0  0  0  0  0
    2.8579    5.5286    0.0000 C   0  0  0  0  0  0  0  0  0  0  0  0
    3.5724    4.2911    0.0000 C   0  0  0  0  0  0  0  0  0  0  0  0
    2.1434    5.9411    0.0000 Cl  0  0  0  0  0  0  0  0  0  0  0  0
    3.5724    5.9411    0.0000 N   0  0  0  0  0  0  0  0  0  0  0  0
    4.2868    4.7036    0.0000 N   0  0  0  0  0  0  0  0  0  0  0  0
    2.1434    4.2911    0.0000 N   0  0  0  0  0  0  0  0  0  0  0  0
    1.2908    4.7834    0.0000 H   0  0  0  0  0  0  0  0  0  0  0  0
  2  1  1  0  0  0  0
  4  3  2  0  0  0  0
  5  3  1  0  0  0  0
  6  4  1  0  0  0  0
  7  2  2  0  0  0  0
  7  4  1  0  0  0  0
  8  2  1  0  0  0  0
  8  5  2  0  0  0  0
  9  3  1  0  0  0  0
  9 10  1  0  0  0  0
M  END
$$$$
Clc1c[nH]c(=O)cc1O
 OpenBabel07182308452D

 11 11  0  0  0  0  0  0  0  0999 V2000
   -1.4289   -0.5403    0.0000 Cl  0  0  0  0  0  0  0  0  0  0  0  0
    0.0000   -1.3654    0.0000 O   0  0  0  0  0  0  0  0  0  0  0  0
    1.4289    1.1096    0.0000 O   0  0  0  0  0  0  0  0  0  0  0  0
    0.0000    1.1096    0.0000 N   0  0  0  0  0  0  0  0  0  0  0  0
    0.0000   -0.5403    0.0000 C   0  0  0  0  0  0  0  0  0  0  0  0
   -0.7145   -0.1278    0.0000 C   0  0  0  0  0  0  0  0  0  0  0  0
    0.7145   -0.1278    0.0000 C   0  0  0  0  0  0  0  0  0  0  0  0
   -0.7145    0.6971    0.0000 C   0  0  0  0  0  0  0  0  0  0  0  0
    0.7145    0.6971    0.0000 C   0  0  0  0  0  0  0  0  0  0  0  0
   -0.8115   -1.8339    0.0000 H   0  0  0  0  0  0  0  0  0  0  0  0
    0.0000    2.0941    0.0000 H   0  0  0  0  0  0  0  0  0  0  0  0
  1  6  1  0  0  0  0
  2  5  1  0  0  0  0
  2 10  1  0  0  0  0
  3  9  2  0  0  0  0
  4  8  1  0  0  0  0
  4  9  1  0  0  0  0
  4 11  1  0  0  0  0
  5  6  1  0  0  0  0
  5  7  2  0  0  0  0
  6  8  2  0  0  0  0
  7  9  1  0  0  0  0
M  END
$$$$
[Sr+2]
 OpenBabel07182308452D

  1  0  0  0  0  0  0  0  0  0999 V2000
   -4.4075    0.0000    0.0000 Sr  0  2  0  0  0 15  0  0  0  0  0  0
M  CHG  1   1   2
M  END
$$$$
Cc1cscc1C#N
 OpenBabel07182308452D

  8  8  0  0  0  0  0  0  0  0999 V2000
    1.6749    0.2292    0.0000 C   0  0  0  0  0  0  0  0  0  0  0  0
    1.9305   -0.5553    0.0000 C   0  0  0  0  0  0  0  0  0  0  0  0
    1.4456   -1.2252    0.0000 C   0  0  0  0  0  0  0  0  0  0  0  0
    0.9609   -1.8864    0.0000 N   0  0  0  0  0  0  0  0  0  0  0  0
    2.7590   -0.5553    0.0000 C   0  0  0  0  0  0  0  0  0  0  0  0
    3.2350   -1.2252    0.0000 C   0  0  0  0  0  0  0  0  0  0  0  0
    3.0147    0.2292    0.0000 C   0  0  0  0  0  0  0  0  0  0  0  0
    2.3448    0.7140    0.0000 S   0  0  0  0  0  0  0  0  0  0  0  0
  1  2  2  0  0  0  0
  1  8  1  0  0  0  0
  2  3  1  0  0  0  0
  2  5  1  0  0  0  0
  3  4  3  0  0  0  0
  5  6  1  0  0  0  0
  5  7  2  0  0  0  0
  7  8  1  0  0  0  0
M  END
$$$$
O=C1C=CC(=O)C(=C1)C
 OpenBabel07182308452D

  9  9  0  0  0  0  0  0  0  0999 V2000
  -12.8605    0.2062    0.0000 C   0  0  0  0  0  0  0  0  0  0  0  0
  -12.8605   -0.6188    0.0000 C   0  0  0  0  0  0  0  0  0  0  0  0
  -13.5749   -1.0313    0.0000 C   0  0  0  0  0  0  0  0  0  0  0  0
  -14.2894   -0.6188    0.0000 C   0  0  0  0  0  0  0  0  0  0  0  0
  -14.2894    0.2062    0.0000 C   0  0  0  0  0  0  0  0  0  0  0  0
  -13.5749    0.6188    0.0000 C   0  0  0  0  0  0  0  0  0  0  0  0
  -12.1460    0.6188    0.0000 O   0  0  0  0  0  0  0  0  0  0  0  0
  -15.0039   -1.0313    0.0000 O   0  0  0  0  0  0  0  0  0  0  0  0
  -13.5749   -1.8563    0.0000 C   0  0  0  0  0  0  0  0  0  0  0  0
  1  2  1  0  0  0  0
  1  6  1  0  0  0  0
  1  7  2  0  0  0  0
  2  3  2  0  0  0  0
  3  4  1  0  0  0  0
  3  9  1  0  0  0  0
  4  5  1  0  0  0  0
  4  8  2  0  0  0  0
  5  6  2  0  0  0  0
M  END
$$$$
O[C@@H]1O[C@@H]2O[C@@]3(C)CC[C@@H]4[C@]2([C@H]([C@H]1C)CC[C@H]4C)OO3
 OpenBabel07182308452D

 23 26  0  0  0  0  0  0  0  0999 V2000
   -0.4386    0.7834    0.0000 C   0  0  1  0  0  0  0  0  0  0  0  0
   -1.1526    0.3701    0.0000 C   0  0  2  0  0  0  0  0  0  0  0  0
    0.2753    0.3701    0.0000 C   0  0  2  0  0  0  0  0  0  0  0  0
   -1.1526   -0.4566    0.0000 O   0  0  0  0  0  0  0  0  0  0  0  0
   -0.4386   -0.8699    0.0000 C   0  0  2  0  0  0  0  0  0  0  0  0
   -1.4782    1.0464    0.0000 O   0  0  0  0  0  0  0  0  0  0  0  0
   -1.9542    0.5581    0.0000 O   0  0  0  0  0  0  0  0  0  0  0  0
   -0.4762    1.6394    0.0000 C   0  0  1  0  0  0  0  0  0  0  0  0
   -2.3049    1.3012    0.0000 C   0  0  2  0  0  0  0  0  0  0  0  0
    0.2753   -0.4566    0.0000 C   0  0  2  0  0  0  0  0  0  0  0  0
   -1.5408    1.7019    0.0000 O   0  0  0  0  0  0  0  0  0  0  0  0
    0.9099    0.8711    0.0000 C   0  0  0  0  0  0  0  0  0  0  0  0
   -1.1317    2.2239    0.0000 C   0  0  0  0  0  0  0  0  0  0  0  0
   -0.4428   -1.6966    0.0000 O   0  0  0  0  0  0  0  0  0  0  0  0
    0.2126    2.1028    0.0000 C   0  0  1  0  0  0  0  0  0  0  0  0
    0.9140    1.6853    0.0000 C   0  0  0  0  0  0  0  0  0  0  0  0
   -1.9417    2.0485    0.0000 C   0  0  0  0  0  0  0  0  0  0  0  0
   -3.1316    1.3095    0.0000 C   0  0  0  0  0  0  0  0  0  0  0  0
    0.9892   -0.8699    0.0000 C   0  0  0  0  0  0  0  0  0  0  0  0
    0.2084    2.9295    0.0000 C   0  0  0  0  0  0  0  0  0  0  0  0
   -1.8665   -0.0431    0.0000 H   0  0  0  0  0  0  0  0  0  0  0  0
   -0.5012    2.5244    0.0000 H   0  0  0  0  0  0  0  0  0  0  0  0
    0.9912   -0.0431    0.0000 H   0  0  0  0  0  0  0  0  0  0  0  0
  1  2  1  1  0  0  0
  1  6  1  0  0  0  0
  2  4  1  0  0  0  0
  2 21  1  1  0  0  0
  3  1  1  6  0  0  0
  3 23  1  0  0  0  0
  5 10  1  0  0  0  0
  5 14  1  6  0  0  0
  5  4  1  0  0  0  0
  7  2  1  0  0  0  0
  8  1  1  6  0  0  0
  8 22  1  0  0  0  0
  9 11  1  0  0  0  0
  9 18  1  6  0  0  0
  9 17  1  0  0  0  0
  9  7  1  0  0  0  0
 10  3  1  1  0  0  0
 10 19  1  0  0  0  0
 11  6  1  0  0  0  0
 12  3  1  0  0  0  0
 13  8  1  0  0  0  0
 15  8  1  6  0  0  0
 15 20  1  0  0  0  0
 16 15  1  0  0  0  0
 16 12  1  0  0  0  0
 17 13  1  0  0  0  0
M  END
$$$$
[O-]C
 OpenBabel07182308452D

  2  1  0  0  0  0  0  0  0  0999 V2000
   -3.1821   -0.3976    0.0000 C   0  0  0  0  0  0  0  0  0  0  0  0
   -2.4676    0.0148    0.0000 O   0  5  0  0  0  0  0  0  0  0  0  0
  2  1  1  0  0  0  0
M  CHG  1   2  -1
M  END
$$$$
[Bi+3]
 OpenBabel07182308452D

  1  0  0  0  0  0  0  0  0  0999 V2000
   -1.1196    0.3167    0.0000 Bi  0  1  0  0  0 15  0  0  0  0  0  0
M  CHG  1   1   3
M  END
$$$$
[11CH3][N+](C)(C)C
 OpenBabel07182308452D

  5  4  0  0  0  0  0  0  0  0999 V2000
   -0.7251   -0.1949    0.0000 N   0  3  0  0  0  0  0  0  0  0  0  0
    0.0103   -0.5689    0.0000 C   0  0  0  0  0  0  0  0  0  0  0  0
   -1.4166   -0.6448    0.0000 C   0  0  0  0  0  0  0  0  0  0  0  0
   -0.7689    0.6288    0.0000 C   0  0  0  0  0  0  0  0  0  0  0  0
   -1.4395    0.2175    0.0000 C   0  0  0  0  0  0  0  0  0  0  0  0
  1  3  1  0  0  0  0
  1  4  1  0  0  0  0
  1  5  1  0  0  0  0
  2  1  1  0  0  0  0
M  ISO  1   5  11
M  CHG  1   1   1
M  END
$$$$
[C]
 OpenBabel07182308452D

  1  0  0  0  0  0  0  0  0  0999 V2000
    0.0000    0.0000    0.0000 C   0  0  0  0  0 15  0  0  0  0  0  0
M  END
$$$$
Nc1ccc(cn1)C
 OpenBabel07182308452D

  9  9  0  0  0  0  0  0  0  0999 V2000
    1.0278    0.9367    0.0000 C   0  0  0  0  0  0  0  0  0  0  0  0
    0.3126    1.3553    0.0000 N   0  0  0  0  0  0  0  0  0  0  0  0
   -0.4025    0.9367    0.0000 C   0  0  0  0  0  0  0  0  0  0  0  0
   -1.1178    1.3468    0.0000 N   0  0  0  0  0  0  0  0  0  0  0  0
   -0.4025    0.1079    0.0000 C   0  0  0  0  0  0  0  0  0  0  0  0
    0.3126   -0.3021    0.0000 C   0  0  0  0  0  0  0  0  0  0  0  0
    1.0278    0.1079    0.0000 C   0  0  0  0  0  0  0  0  0  0  0  0
    1.7412   -0.3053    0.0000 C   0  0  0  0  0  0  0  0  0  0  0  0
   -1.1207    2.3313    0.0000 H   0  0  0  0  0  0  0  0  0  0  0  0
  1  2  2  0  0  0  0
  1  7  1  0  0  0  0
  2  3  1  0  0  0  0
  3  4  1  0  0  0  0
  3  5  2  0  0  0  0
  4  9  1  0  0  0  0
  5  6  1  0  0  0  0
  6  7  2  0  0  0  0
  7  8  1  0  0  0  0
M  END
$$$$
FC1(F)Oc2c(O1)cccc2
 OpenBabel07182308452D

 11 12  0  0  0  0  0  0  0  0999 V2000
   -3.0737    0.7093    0.0000 C   0  0  0  0  0  0  0  0  0  0  0  0
   -3.8905    0.8530    0.0000 C   0  0  0  0  0  0  0  0  0  0  0  0
   -4.4188    0.2193    0.0000 C   0  0  0  0  0  0  0  0  0  0  0  0
   -4.1394   -0.5564    0.0000 C   0  0  0  0  0  0  0  0  0  0  0  0
   -4.5291   -1.2897    0.0000 O   0  0  0  0  0  0  0  0  0  0  0  0
   -3.9520   -1.8868    0.0000 C   0  0  0  0  0  0  0  0  0  0  0  0
   -3.5147   -2.5857    0.0000 F   0  0  0  0  0  0  0  0  0  0  0  0
   -4.6015   -2.3947    0.0000 F   0  0  0  0  0  0  0  0  0  0  0  0
   -3.2060   -1.5224    0.0000 O   0  0  0  0  0  0  0  0  0  0  0  0
   -3.3218   -0.7002    0.0000 C   0  0  0  0  0  0  0  0  0  0  0  0
   -2.7853   -0.0680    0.0000 C   0  0  0  0  0  0  0  0  0  0  0  0
  1  2  2  0  0  0  0
  1 11  1  0  0  0  0
  2  3  1  0  0  0  0
  3  4  2  0  0  0  0
  4  5  1  0  0  0  0
  4 10  1  0  0  0  0
  5  6  1  0  0  0  0
  6  7  1  0  0  0  0
  6  8  1  0  0  0  0
  6  9  1  0  0  0  0
  9 10  1  0  0  0  0
 10 11  2  0  0  0  0
M  END
$$$$
[O-][Si](O)(O)[O-]
 OpenBabel07182308452D

  5  4  0  0  0  0  0  0  0  0999 V2000
    0.0000   -0.4946    0.0000 Si  0  0  0  0  0  0  0  0  0  0  0  0
    0.7622   -0.1788    0.0000 O   0  0  0  0  0  0  0  0  0  0  0  0
   -0.7622   -0.1788    0.0000 O   0  0  0  0  0  0  0  0  0  0  0  0
   -0.5833   -1.0780    0.0000 O   0  5  0  0  0  0  0  0  0  0  0  0
    0.5834   -1.0780    0.0000 O   0  5  0  0  0  0  0  0  0  0  0  0
  1  2  1  0  0  0  0
  1  3  1  0  0  0  0
  1  4  1  0  0  0  0
  1  5  1  0  0  0  0
M  CHG  2   4  -1   5  -1
M  END
$$$$
[O-][SiH]=O
 OpenBabel07182308452D

  3  2  0  0  0  0  0  0  0  0999 V2000
    1.0779    0.5833    0.0000 Si  0  0  0  0  0  0  0  0  0  0  0  0
    0.7622    1.3456    0.0000 O   0  5  0  0  0  0  0  0  0  0  0  0
    1.9030    0.5833    0.0000 O   0  0  0  0  0  0  0  0  0  0  0  0
  1  2  1  0  0  0  0
  1  3  2  0  0  0  0
M  CHG  1   2  -1
M  END
$$$$
[NH-]C1=C[NH+]=NO1
 OpenBabel07182308452D

  6  6  0  0  0  0  0  0  0  0999 V2000
    0.9933   -0.5374    0.0000 N   0  3  0  0  0  0  0  0  0  0  0  0
    0.1682   -0.5374    0.0000 C   0  0  0  0  0  0  0  0  0  0  0  0
    1.2482    0.2472    0.0000 N   0  0  0  0  0  0  0  0  0  0  0  0
   -0.0866    0.2472    0.0000 C   0  0  0  0  0  0  0  0  0  0  0  0
    0.5808    0.7321    0.0000 O   0  0  0  0  0  0  0  0  0  0  0  0
   -0.8712    0.5021    0.0000 N   0  5  0  0  0  0  0  0  0  0  0  0
  1  2  1  0  0  0  0
  1  3  2  0  0  0  0
  2  4  2  0  0  0  0
  3  5  1  0  0  0  0
  4  6  1  0  0  0  0
  4  5  1  0  0  0  0
M  CHG  2   1   1   6  -1
M  END
$$$$
CC1CC[C@@]2(CN1)CCC(=O)N2
 OpenBabel07182308452D

 14 15  0  0  0  0  0  0  0  0999 V2000
   -1.0558    1.4079    0.0000 C   0  0  0  0  0  0  0  0  0  0  0  0
   -1.8012    0.9938    0.0000 C   0  0  3  0  0  0  0  0  0  0  0  0
   -1.0558    0.5383    0.0000 N   0  0  0  0  0  0  0  0  0  0  0  0
   -1.0558   -0.2898    0.0000 C   0  0  0  0  0  0  0  0  0  0  0  0
   -1.7597   -0.7039    0.0000 C   0  0  2  0  0  0  0  0  0  0  0  0
   -2.5051   -0.2484    0.0000 C   0  0  0  0  0  0  0  0  0  0  0  0
   -2.5051    0.5797    0.0000 C   0  0  0  0  0  0  0  0  0  0  0  0
   -1.0973   -1.1593    0.0000 C   0  0  0  0  0  0  0  0  0  0  0  0
   -1.3457   -1.9460    0.0000 C   0  0  0  0  0  0  0  0  0  0  0  0
   -2.1738   -1.9460    0.0000 C   0  0  0  0  0  0  0  0  0  0  0  0
   -2.4637   -1.1593    0.0000 N   0  0  0  0  0  0  0  0  0  0  0  0
   -2.6707   -2.6086    0.0000 O   0  0  0  0  0  0  0  0  0  0  0  0
   -0.1662    1.0373    0.0000 H   0  0  0  0  0  0  0  0  0  0  0  0
   -3.3977   -0.8479    0.0000 H   0  0  0  0  0  0  0  0  0  0  0  0
  1  2  1  0  0  0  0
  2  3  1  0  0  0  0
  2  7  1  0  0  0  0
  3  4  1  0  0  0  0
  3 13  1  0  0  0  0
  5  4  1  6  0  0  0
  5  6  1  0  0  0  0
  5  8  1  0  0  0  0
  5 11  1  0  0  0  0
  6  7  1  0  0  0  0
  8  9  1  0  0  0  0
  9 10  1  0  0  0  0
 10 11  1  0  0  0  0
 10 12  2  0  0  0  0
 11 14  1  0  0  0  0
M  END
$$$$
[131I-]
 OpenBabel07182308452D

  1  0  0  0  0  0  0  0  0  0999 V2000
    0.0000    0.0000    0.0000 I   0  5  0  0  0  0  0  0  0  0  0  0
M  ISO  1   1 131
M  CHG  1   1  -1
M  END
$$$$
Oc1nc2ccccc2c2c1cccc2
 OpenBabel07182308452D

 15 17  0  0  0  0  0  0  0  0999 V2000
    2.7363   -0.0803    0.0000 C   0  0  0  0  0  0  0  0  0  0  0  0
    2.0896   -0.5925    0.0000 C   0  0  0  0  0  0  0  0  0  0  0  0
    1.3226   -0.2885    0.0000 C   0  0  0  0  0  0  0  0  0  0  0  0
    1.2024    0.5276    0.0000 C   0  0  0  0  0  0  0  0  0  0  0  0
    1.8492    1.0398    0.0000 C   0  0  0  0  0  0  0  0  0  0  0  0
    2.6161    0.7358    0.0000 C   0  0  0  0  0  0  0  0  0  0  0  0
    1.7290    1.8560    0.0000 C   0  0  0  0  0  0  0  0  0  0  0  0
    2.3758    2.3682    0.0000 N   0  0  0  0  0  0  0  0  0  0  0  0
    3.1427    2.0642    0.0000 C   0  0  0  0  0  0  0  0  0  0  0  0
    3.2629    1.2480    0.0000 C   0  0  0  0  0  0  0  0  0  0  0  0
    4.0298    0.9440    0.0000 C   0  0  0  0  0  0  0  0  0  0  0  0
    4.6766    1.4562    0.0000 C   0  0  0  0  0  0  0  0  0  0  0  0
    4.5564    2.2724    0.0000 C   0  0  0  0  0  0  0  0  0  0  0  0
    3.7895    2.5764    0.0000 C   0  0  0  0  0  0  0  0  0  0  0  0
    0.9621    2.1600    0.0000 O   0  0  0  0  0  0  0  0  0  0  0  0
  1  2  2  0  0  0  0
  2  3  1  0  0  0  0
  3  4  2  0  0  0  0
  4  5  1  0  0  0  0
  5  7  1  0  0  0  0
  6  1  1  0  0  0  0
  6  5  2  0  0  0  0
  7  8  2  0  0  0  0
  7 15  1  0  0  0  0
  8  9  1  0  0  0  0
  9 10  2  0  0  0  0
 10  6  1  0  0  0  0
 10 11  1  0  0  0  0
 11 12  2  0  0  0  0
 12 13  1  0  0  0  0
 13 14  2  0  0  0  0
 14  9  1  0  0  0  0
M  END
$$$$
N[C@H]1CCCCC/C=C\[C@H]2C(NC(=O)[C@H]3N(C1=O)CCC3)C2
 OpenBabel07182308452D

 26 28  0  0  0  0  0  0  0  0999 V2000
    0.3153    1.6478    0.0000 C   0  0  0  0  0  0  0  0  0  0  0  0
   -0.4791    1.8700    0.0000 C   0  0  0  0  0  0  0  0  0  0  0  0
   -0.9359    1.1830    0.0000 C   0  0  2  0  0  0  0  0  0  0  0  0
   -0.4237    0.5363    0.0000 N   0  0  0  0  0  0  0  0  0  0  0  0
    0.3495    0.8236    0.0000 C   0  0  0  0  0  0  0  0  0  0  0  0
   -1.6669    1.5656    0.0000 C   0  0  0  0  0  0  0  0  0  0  0  0
   -2.4903    1.6177    0.0000 N   0  0  0  0  0  0  0  0  0  0  0  0
   -1.4447    2.3601    0.0000 O   0  0  0  0  0  0  0  0  0  0  0  0
   -0.2189   -0.2628    0.0000 C   0  0  0  0  0  0  0  0  0  0  0  0
   -0.3568   -1.0762    0.0000 C   0  0  2  0  0  0  0  0  0  0  0  0
    0.6053   -0.2286    0.0000 O   0  0  0  0  0  0  0  0  0  0  0  0
   -0.8136   -1.7631    0.0000 C   0  0  0  0  0  0  0  0  0  0  0  0
    0.4100   -1.3802    0.0000 N   0  0  0  0  0  0  0  0  0  0  0  0
   -1.5104   -2.2049    0.0000 C   0  0  0  0  0  0  0  0  0  0  0  0
   -2.3266   -2.3251    0.0000 C   0  0  0  0  0  0  0  0  0  0  0  0
   -3.1211   -2.1029    0.0000 C   0  0  0  0  0  0  0  0  0  0  0  0
   -3.7566   -1.5768    0.0000 C   0  0  0  0  0  0  0  0  0  0  0  0
   -4.1231   -0.8377    0.0000 C   0  0  0  0  0  0  0  0  0  0  0  0
   -4.1573   -0.0134    0.0000 C   0  0  0  0  0  0  0  0  0  0  0  0
   -3.8533    0.7534    0.0000 C   0  0  1  0  0  0  0  0  0  0  0  0
   -3.2636    1.3304    0.0000 C   0  0  3  0  0  0  0  0  0  0  0  0
   -4.0581    1.5526    0.0000 C   0  0  0  0  0  0  0  0  0  0  0  0
   -4.6766    0.8056    0.0000 H   0  0  0  0  0  0  0  0  0  0  0  0
   -1.1408    1.9822    0.0000 H   0  0  0  0  0  0  0  0  0  0  0  0
   -2.6338    2.5917    0.0000 H   0  0  0  0  0  0  0  0  0  0  0  0
    1.1818   -0.7690    0.0000 H   0  0  0  0  0  0  0  0  0  0  0  0
  1  2  1  0  0  0  0
  1  5  1  0  0  0  0
  2  3  1  0  0  0  0
  3  4  1  0  0  0  0
  3  6  1  0  0  0  0
  3 24  1  1  0  0  0
  4  5  1  0  0  0  0
  4  9  1  0  0  0  0
  6  7  1  0  0  0  0
  6  8  2  0  0  0  0
  7 25  1  0  0  0  0
  9 10  1  0  0  0  0
  9 11  2  0  0  0  0
 10 12  1  0  0  0  0
 10 13  1  1  0  0  0
 12 14  1  0  0  0  0
 13 26  1  0  0  0  0
 14 15  1  0  0  0  0
 15 16  1  0  0  0  0
 16 17  1  0  0  0  0
 17 18  1  0  0  0  0
 18 19  2  0  0  0  0
 19 20  1  0  0  0  0
 20 22  1  0  0  0  0
 20 23  1  1  0  0  0
 21  7  1  0  0  0  0
 21 20  1  0  0  0  0
 22 21  1  0  0  0  0
M  END
$$$$
C[P@](=O)(O)N
 OpenBabel07182308452D

  6  5  0  0  0  0  0  0  0  0999 V2000
   -0.7739   -0.2040    0.0000 P   0  0  2  0  0  0  0  0  0  0  0  0
   -1.5138    0.2040    0.0000 O   0  0  0  0  0  0  0  0  0  0  0  0
   -0.3656    0.5358    0.0000 O   0  0  0  0  0  0  0  0  0  0  0  0
   -1.4372   -0.9099    0.0000 N   0  0  0  0  0  0  0  0  0  0  0  0
   -0.0340   -0.6207    0.0000 C   0  0  0  0  0  0  0  0  0  0  0  0
   -2.3855   -0.5343    0.0000 H   0  0  0  0  0  0  0  0  0  0  0  0
  1  2  1  0  0  0  0
  1  3  2  0  0  0  0
  1  4  1  0  0  0  0
  1  5  1  1  0  0  0
  4  6  1  0  0  0  0
M  END
$$$$
C[N+]1(C)[C@@H]2CCC[C@H]1[C@H]1[C@@H]2O1
 OpenBabel07182308452D

 11 13  0  0  0  0  0  0  0  0999 V2000
   -2.3915    0.7353    0.0000 C   0  0  1  0  0  0  0  0  0  0  0  0
   -1.5539   -0.9399    0.0000 C   0  0  2  0  0  0  0  0  0  0  0  0
   -1.5858    0.9335    0.0000 C   0  0  0  0  0  0  0  0  0  0  0  0
   -0.9143   -0.4092    0.0000 C   0  0  0  0  0  0  0  0  0  0  0  0
   -0.9335    0.4284    0.0000 C   0  0  0  0  0  0  0  0  0  0  0  0
   -2.3723   -0.7673    0.0000 C   0  0  2  0  0  0  0  0  0  0  0  0
   -2.7432   -0.0256    0.0000 C   0  0  1  0  0  0  0  0  0  0  0  0
   -3.1972   -0.7161    0.0000 O   0  0  0  0  0  0  0  0  0  0  0  0
   -1.5347    0.1214    0.0000 N   0  3  0  0  0  0  0  0  0  0  0  0
   -2.1165   -0.2045    0.0000 C   0  0  0  0  0  0  0  0  0  0  0  0
   -0.7098    0.1279    0.0000 C   0  0  0  0  0  0  0  0  0  0  0  0
  1  7  1  0  0  0  0
  1  3  1  6  0  0  0
  1  9  1  0  0  0  0
  2  6  1  0  0  0  0
  2  4  1  6  0  0  0
  2  9  1  0  0  0  0
  3  5  1  0  0  0  0
  4  5  1  0  0  0  0
  6  7  1  0  0  0  0
  6  8  1  1  0  0  0
  7  8  1  1  0  0  0
  9 10  1  0  0  0  0
  9 11  1  0  0  0  0
M  CHG  1   9   1
M  END
$$$$
[98Tc-]
 OpenBabel07182308452D

  1  0  0  0  0  0  0  0  0  0999 V2000
    0.5892   -0.8250    0.0000 Tc  0  5  0  0  0 15  0  0  0  0  0  0
M  ISO  1   1  98
M  CHG  1   1  -1
M  END
$$$$
[133Xe]
 OpenBabel07182308452D

  1  0  0  0  0  0  0  0  0  0999 V2000
    0.0000    0.0000    0.0000 Xe  0  0  0  0  0  0  0  0  0  0  0  0
M  ISO  1   1 133
M  END
$$$$
Cl[Tl]
 OpenBabel07182308452D

  2  1  0  0  0  0  0  0  0  0999 V2000
   -0.4125    0.0000    0.0000 Tl  0  0  0  0  0  0  0  0  0  0  0  0
    0.4125    0.0000    0.0000 Cl  0  0  0  0  0  0  0  0  0  0  0  0
  2  1  1  0  0  0  0
M  END
$$$$
C1Cc2c(C1)cccc2
 OpenBabel07182308452D

  9 10  0  0  0  0  0  0  0  0999 V2000
   -3.6301   -0.2888    0.0000 C   0  0  0  0  0  0  0  0  0  0  0  0
   -2.2082   -0.2839    0.0000 C   0  0  0  0  0  0  0  0  0  0  0  0
   -2.9167    0.1286    0.0000 C   0  0  0  0  0  0  0  0  0  0  0  0
   -3.6301   -1.1138    0.0000 C   0  0  0  0  0  0  0  0  0  0  0  0
   -2.9167   -1.5263    0.0000 C   0  0  0  0  0  0  0  0  0  0  0  0
   -2.2033   -1.1138    0.0000 C   0  0  0  0  0  0  0  0  0  0  0  0
   -4.4163   -0.0315    0.0000 C   0  0  0  0  0  0  0  0  0  0  0  0
   -4.9017   -0.6964    0.0000 C   0  0  0  0  0  0  0  0  0  0  0  0
   -4.4163   -1.3662    0.0000 C   0  0  0  0  0  0  0  0  0  0  0  0
  1  3  1  0  0  0  0
  3  2  2  0  0  0  0
  4  1  2  0  0  0  0
  5  6  2  0  0  0  0
  5  4  1  0  0  0  0
  6  2  1  0  0  0  0
  7  1  1  0  0  0  0
  8  7  1  0  0  0  0
  9  4  1  0  0  0  0
  9  8  1  0  0  0  0
M  END
$$$$
O=[Zn]
 OpenBabel07182308452D

  2  1  0  0  0  0  0  0  0  0999 V2000
    0.0000   -2.6202    0.0000 Zn  0  0  0  0  0  0  0  0  0  0  0  0
    0.8250   -2.6208    0.0000 O   0  0  0  0  0  0  0  0  0  0  0  0
  1  2  2  0  0  0  0
M  END
$$$$
[Zn+2]
 OpenBabel07182308452D

  1  0  0  0  0  0  0  0  0  0999 V2000
    3.1821    0.0000    0.0000 Zn  0  2  0  0  0 15  0  0  0  0  0  0
M  CHG  1   1   2
M  END
$$$$
O=C1C[C@@H]2N1CC(S2(=O)=O)(C)C
 OpenBabel07182308452D

 14 15  0  0  1  0  0  0  0  0999 V2000
    2.5600   -1.0718    0.0000 C   0  0  0  0  0  0  0  0  0  0  0  0
    2.5600    0.0323    0.0000 C   0  0  0  0  0  0  0  0  0  0  0  0
   -0.1477   -0.1073    0.0000 C   0  0  0  0  0  0  0  0  0  0  0  0
   -0.1477   -0.9323    0.0000 C   0  0  0  0  0  0  0  0  0  0  0  0
    0.6773   -0.1073    0.0000 C   0  0  2  0  0  0  0  0  0  0  0  0
    1.4620   -1.1872    0.0000 C   0  0  0  0  0  0  0  0  0  0  0  0
    1.9469   -0.5198    0.0000 C   0  0  0  0  0  0  0  0  0  0  0  0
    0.6773   -0.9323    0.0000 N   0  0  0  0  0  0  0  0  0  0  0  0
   -0.7310   -1.5156    0.0000 O   0  0  0  0  0  0  0  0  0  0  0  0
    1.2989    0.9564    0.0000 O   0  0  0  0  0  0  0  0  0  0  0  0
    2.0692    0.7061    0.0000 O   0  0  0  0  0  0  0  0  0  0  0  0
    1.4620    0.1477    0.0000 S   0  0  0  0  0  0  0  0  0  0  0  0
    0.5483    0.7076    0.0000 H   0  0  0  0  0  0  0  0  0  0  0  0
    2.2768   -1.3163    0.0000 H   0  0  0  0  0  0  0  0  0  0  0  0
  4  3  1  0  0  0  0
  5  3  1  0  0  0  0
  5 13  1  6  0  0  0
  6 14  1  0  0  0  0
  7  1  1  0  0  0  0
  7  2  1  0  0  0  0
  7  6  1  0  0  0  0
  8  4  1  0  0  0  0
  8  5  1  0  0  0  0
  8  6  1  0  0  0  0
  9  4  2  0  0  0  0
 12  5  1  0  0  0  0
 12  7  1  0  0  0  0
 12 10  2  0  0  0  0
 12 11  2  0  0  0  0
M  END
$$$$
[F-]
 OpenBabel07182308452D

  1  0  0  0  0  0  0  0  0  0999 V2000
    0.4125    0.0000    0.0000 F   0  5  0  0  0  0  0  0  0  0  0  0
M  CHG  1   1  -1
M  END
$$$$
[13NH3]
 OpenBabel07182308452D

  4  3  0  0  0  0  0  0  0  0999 V2000
    0.0000    0.0000    0.0000 N   0  0  0  0  0  0  0  0  0  0  0  0
    0.0000    0.0000    0.0000 H   0  0  0  0  0  0  0  0  0  0  0  0
    0.0000    0.0000    0.0000 H   0  0  0  0  0  0  0  0  0  0  0  0
    0.0000    0.0000    0.0000 H   0  0  0  0  0  0  0  0  0  0  0  0
  1  2  1  0  0  0  0
  1  3  1  0  0  0  0
  1  4  1  0  0  0  0
M  ISO  1   1  13
M  END
$$$$
Cn1ccc2c1cccc2
 OpenBabel07182308452D

 10 11  0  0  0  0  0  0  0  0999 V2000
   -2.1943    0.8862    0.0000 C   0  0  0  0  0  0  0  0  0  0  0  0
   -1.5276    1.3672    0.0000 C   0  0  0  0  0  0  0  0  0  0  0  0
   -1.7892    2.1521    0.0000 N   0  0  0  0  0  0  0  0  0  0  0  0
   -2.6078    2.1521    0.0000 C   0  0  0  0  0  0  0  0  0  0  0  0
   -2.8611    1.3672    0.0000 C   0  0  0  0  0  0  0  0  0  0  0  0
   -3.1564    2.7683    0.0000 C   0  0  0  0  0  0  0  0  0  0  0  0
   -3.9667    2.5994    0.0000 C   0  0  0  0  0  0  0  0  0  0  0  0
   -4.2199    1.8145    0.0000 C   0  0  0  0  0  0  0  0  0  0  0  0
   -3.6713    1.1985    0.0000 C   0  0  0  0  0  0  0  0  0  0  0  0
   -1.2997    2.8189    0.0000 C   0  0  0  0  0  0  0  0  0  0  0  0
  1  2  2  0  0  0  0
  1  5  1  0  0  0  0
  2  3  1  0  0  0  0
  3  4  1  0  0  0  0
  3 10  1  0  0  0  0
  4  5  2  0  0  0  0
  4  6  1  0  0  0  0
  5  9  1  0  0  0  0
  6  7  2  0  0  0  0
  7  8  1  0  0  0  0
  8  9  2  0  0  0  0
M  END
$$$$
Cc1[nH]c(=O)[nH]c(=O)c1Cl
 OpenBabel07182308452D

 12 12  0  0  0  0  0  0  0  0999 V2000
   -0.7029   -1.4597    0.0000 Cl  0  0  0  0  0  0  0  0  0  0  0  0
    0.0115   -1.0472    0.0000 C   0  0  0  0  0  0  0  0  0  0  0  0
    0.0115   -0.2222    0.0000 C   0  0  0  0  0  0  0  0  0  0  0  0
    0.7260    0.1902    0.0000 N   0  0  0  0  0  0  0  0  0  0  0  0
    1.4405   -0.2222    0.0000 C   0  0  0  0  0  0  0  0  0  0  0  0
    2.1549    0.1902    0.0000 O   0  0  0  0  0  0  0  0  0  0  0  0
    1.4405   -1.0472    0.0000 N   0  0  0  0  0  0  0  0  0  0  0  0
    0.7260   -1.4597    0.0000 C   0  0  0  0  0  0  0  0  0  0  0  0
    0.7260   -2.2847    0.0000 O   0  0  0  0  0  0  0  0  0  0  0  0
   -0.7029    0.1902    0.0000 C   0  0  0  0  0  0  0  0  0  0  0  0
    0.7260    1.1747    0.0000 H   0  0  0  0  0  0  0  0  0  0  0  0
    2.2931   -1.5395    0.0000 H   0  0  0  0  0  0  0  0  0  0  0  0
  1  2  1  0  0  0  0
  2  3  2  0  0  0  0
  2  8  1  0  0  0  0
  3  4  1  0  0  0  0
  3 10  1  0  0  0  0
  4  5  1  0  0  0  0
  4 11  1  0  0  0  0
  5  6  2  0  0  0  0
  5  7  1  0  0  0  0
  7  8  1  0  0  0  0
  7 12  1  0  0  0  0
  8  9  2  0  0  0  0
M  END
$$$$
N=C1CCCN1
 OpenBabel07182308452D

  7  7  0  0  0  0  0  0  0  0999 V2000
   -0.7029    1.0152    0.0000 N   0  0  0  0  0  0  0  0  0  0  0  0
   -1.3703    1.5001    0.0000 C   0  0  0  0  0  0  0  0  0  0  0  0
   -2.1549    1.2452    0.0000 N   0  0  0  0  0  0  0  0  0  0  0  0
   -1.1154    2.2847    0.0000 C   0  0  0  0  0  0  0  0  0  0  0  0
   -0.2904    2.2847    0.0000 C   0  0  0  0  0  0  0  0  0  0  0  0
   -0.0354    1.5001    0.0000 C   0  0  0  0  0  0  0  0  0  0  0  0
   -2.8865    1.9040    0.0000 H   0  0  0  0  0  0  0  0  0  0  0  0
  1  2  1  0  0  0  0
  1  6  1  0  0  0  0
  2  3  2  0  0  0  0
  2  4  1  0  0  0  0
  3  7  1  0  0  0  0
  4  5  1  0  0  0  0
  5  6  1  0  0  0  0
M  END
$$$$
C1COC1=O
 OpenBabel07182308452D

  5  5  0  0  0  0  0  0  0  0999 V2000
   -0.4124   -0.5834    0.0000 C   0  0  0  0  0  0  0  0  0  0  0  0
   -0.9958    0.0000    0.0000 C   0  0  0  0  0  0  0  0  0  0  0  0
   -0.4124    0.5834    0.0000 O   0  0  0  0  0  0  0  0  0  0  0  0
    0.1709    0.0000    0.0000 C   0  0  0  0  0  0  0  0  0  0  0  0
    0.9958    0.0000    0.0000 O   0  0  0  0  0  0  0  0  0  0  0  0
  1  2  1  0  0  0  0
  1  4  1  0  0  0  0
  2  3  1  0  0  0  0
  3  4  1  0  0  0  0
  4  5  2  0  0  0  0
M  END
$$$$
Cc1ccc2c(c1)OCO2
 OpenBabel07182308452D

 10 11  0  0  0  0  0  0  0  0999 V2000
   18.5762   -0.8250    0.0000 C   0  0  0  0  0  0  0  0  0  0  0  0
   17.1473   -1.6500    0.0000 C   0  0  0  0  0  0  0  0  0  0  0  0
   16.4328   -0.4125    0.0000 C   0  0  0  0  0  0  0  0  0  0  0  0
   18.8538   -2.9557    0.0000 C   0  0  0  0  0  0  0  0  0  0  0  0
   17.8618   -0.4125    0.0000 C   0  0  0  0  0  0  0  0  0  0  0  0
   17.1473   -0.8250    0.0000 C   0  0  0  0  0  0  0  0  0  0  0  0
   18.5762   -1.6500    0.0000 C   0  0  0  0  0  0  0  0  0  0  0  0
   17.8618   -2.0625    0.0000 C   0  0  0  0  0  0  0  0  0  0  0  0
   19.1893   -2.2020    0.0000 O   0  0  0  0  0  0  0  0  0  0  0  0
   18.0333   -2.8695    0.0000 O   0  0  0  0  0  0  0  0  0  0  0  0
  5  1  2  0  0  0  0
  6  2  2  0  0  0  0
  6  3  1  0  0  0  0
  6  5  1  0  0  0  0
  7  1  1  0  0  0  0
  8  2  1  0  0  0  0
  8  7  2  0  0  0  0
  9  4  1  0  0  0  0
  9  7  1  0  0  0  0
 10  4  1  0  0  0  0
 10  8  1  0  0  0  0
M  END
$$$$
S1SSSSSSS1
 OpenBabel07182308452D

  8  8  0  0  0  0  0  0  0  0999 V2000
    1.7581    1.1747    0.0000 S   0  0  0  0  0  0  0  0  0  0  0  0
    0.9959    1.4904    0.0000 S   0  0  0  0  0  0  0  0  0  0  0  0
    2.0738    0.4125    0.0000 S   0  0  0  0  0  0  0  0  0  0  0  0
    0.2337    1.1747    0.0000 S   0  0  0  0  0  0  0  0  0  0  0  0
    1.7581   -0.3497    0.0000 S   0  0  0  0  0  0  0  0  0  0  0  0
   -0.0821    0.4125    0.0000 S   0  0  0  0  0  0  0  0  0  0  0  0
    0.9959   -0.6654    0.0000 S   0  0  0  0  0  0  0  0  0  0  0  0
    0.2337   -0.3497    0.0000 S   0  0  0  0  0  0  0  0  0  0  0  0
  2  1  1  0  0  0  0
  3  1  1  0  0  0  0
  4  2  1  0  0  0  0
  5  3  1  0  0  0  0
  6  4  1  0  0  0  0
  7  5  1  0  0  0  0
  8  6  1  0  0  0  0
  8  7  1  0  0  0  0
M  END
$$$$
CC[CH2]
 OpenBabel07182308452D

  3  2  0  0  0  0  0  0  0  0999 V2000
   -4.3936   -1.6500    0.0000 C   0  0  0  0  0  0  0  0  0  0  0  0
   -5.1081   -0.4125    0.0000 C   0  0  0  0  0  0  0  0  0  0  0  0
   -4.3936   -0.8250    0.0000 C   0  0  0  0  0  0  0  0  0  0  0  0
  3  1  1  0  0  0  0
  3  2  1  0  0  0  0
M  RAD  1   1   2
M  END
$$$$
OC=N
 OpenBabel07182308452D

  4  3  0  0  0  0  0  0  0  0999 V2000
   -4.3936    0.8250    0.0000 C   0  0  0  0  0  0  0  0  0  0  0  0
   -5.1081    0.4125    0.0000 N   0  0  0  0  0  0  0  0  0  0  0  0
   -3.6792    0.4125    0.0000 O   0  0  0  0  0  0  0  0  0  0  0  0
   -3.6792   -0.5245    0.0000 H   0  0  0  0  0  0  0  0  0  0  0  0
  2  1  2  0  0  0  0
  3  1  1  0  0  0  0
  3  4  1  0  0  0  0
M  END
$$$$
[Hg+]
 OpenBabel07182308452D

  1  0  0  0  0  0  0  0  0  0999 V2000
   -7.9660    1.2375    0.0000 Hg  0  3  0  0  0 15  0  0  0  0  0  0
M  CHG  1   1   1
M  END
$$$$
Ic1c[nH]cc(c1=O)I
 OpenBabel07182308452D

  9  9  0  0  0  0  0  0  0  0999 V2000
    5.7158   -4.1250    0.0000 N   0  0  0  0  0  0  0  0  0  0  0  0
    6.4302   -3.7125    0.0000 C   0  0  0  0  0  0  0  0  0  0  0  0
    7.1447   -4.1250    0.0000 C   0  0  0  0  0  0  0  0  0  0  0  0
    7.1447   -4.9500    0.0000 C   0  0  0  0  0  0  0  0  0  0  0  0
    7.8592   -5.3625    0.0000 O   0  0  0  0  0  0  0  0  0  0  0  0
    6.4302   -5.3625    0.0000 C   0  0  0  0  0  0  0  0  0  0  0  0
    5.7158   -4.9500    0.0000 C   0  0  0  0  0  0  0  0  0  0  0  0
    6.4302   -6.1875    0.0000 I   0  0  0  0  0  0  0  0  0  0  0  0
    7.8592   -3.7125    0.0000 I   0  0  0  0  0  0  0  0  0  0  0  0
  1  2  1  0  0  0  0
  1  7  1  0  0  0  0
  2  3  2  0  0  0  0
  3  4  1  0  0  0  0
  3  9  1  0  0  0  0
  4  5  2  0  0  0  0
  4  6  1  0  0  0  0
  6  7  2  0  0  0  0
  6  8  1  0  0  0  0
M  END
$$$$
[O-][32P](=O)(O)[O-]
 OpenBabel07182308452D

  6  5  0  0  0  0  0  0  0  0999 V2000
   -0.2435   -0.7033    0.0000 O   0  0  0  0  0  0  0  0  0  0  0  0
   -0.2435    0.1216    0.0000 P   0  0  0  0  0  0  0  0  0  0  0  0
    0.5814    0.1216    0.0000 O   0  5  0  0  0  0  0  0  0  0  0  0
   -0.2435    0.9466    0.0000 O   0  0  0  0  0  0  0  0  0  0  0  0
   -1.0685    0.1216    0.0000 O   0  5  0  0  0  0  0  0  0  0  0  0
   -1.0835   -1.1883    0.0000 H   0  0  0  0  0  0  0  0  0  0  0  0
  1  2  1  0  0  0  0
  1  6  1  0  0  0  0
  2  3  1  0  0  0  0
  2  4  2  0  0  0  0
  2  5  1  0  0  0  0
M  ISO  1   2  32
M  CHG  2   3  -1   5  -1
M  END
$$$$
C#C[C@]1(O)CC[C@@H]2[C@]1(C)CC[C@H]1[C@H]2CCC2=C1CCC(=O)C2
 OpenBabel07182308452D

 26 29  0  0  0  0  0  0  0  0999 V2000
   -1.1020   -0.5458    0.0000 C   0  0  0  0  0  0  0  0  0  0  0  0
    1.0354    0.6916    0.0000 C   0  0  1  0  0  0  0  0  0  0  0  0
    1.0354   -0.1333    0.0000 C   0  0  2  0  0  0  0  0  0  0  0  0
   -0.3896   -0.1291    0.0000 C   0  0  2  0  0  0  0  0  0  0  0  0
   -1.0978   -1.3708    0.0000 C   0  0  0  0  0  0  0  0  0  0  0  0
    0.3228   -0.5333    0.0000 C   0  0  1  0  0  0  0  0  0  0  0  0
    1.8146    0.9541    0.0000 C   0  0  2  0  0  0  0  0  0  0  0  0
    2.5271    1.3666    0.0000 C   0  0  0  0  0  0  0  0  0  0  0  0
    0.3228    1.1041    0.0000 C   0  0  0  0  0  0  0  0  0  0  0  0
   -0.3979    0.6916    0.0000 C   0  0  0  0  0  0  0  0  0  0  0  0
   -1.8146   -0.1209    0.0000 C   0  0  0  0  0  0  0  0  0  0  0  0
    0.3270   -1.3666    0.0000 C   0  0  0  0  0  0  0  0  0  0  0  0
    1.8228   -0.3833    0.0000 C   0  0  0  0  0  0  0  0  0  0  0  0
    3.2396    1.7833    0.0000 C   0  0  0  0  0  0  0  0  0  0  0  0
   -1.8146   -1.7709    0.0000 C   0  0  0  0  0  0  0  0  0  0  0  0
   -0.3896   -1.7791    0.0000 C   0  0  0  0  0  0  0  0  0  0  0  0
    2.3021    0.2833    0.0000 C   0  0  0  0  0  0  0  0  0  0  0  0
   -2.5229   -1.3708    0.0000 C   0  0  0  0  0  0  0  0  0  0  0  0
   -3.2396   -1.7833    0.0000 O   0  0  0  0  0  0  0  0  0  0  0  0
   -2.5229   -0.5458    0.0000 C   0  0  0  0  0  0  0  0  0  0  0  0
    1.6021    1.7541    0.0000 O   0  0  0  0  0  0  0  0  0  0  0  0
    1.0271    1.5166    0.0000 C   0  0  0  0  0  0  0  0  0  0  0  0
   -0.3979   -0.9459    0.0000 H   0  0  0  0  0  0  0  0  0  0  0  0
    1.0271   -0.9583    0.0000 H   0  0  0  0  0  0  0  0  0  0  0  0
    0.3146    0.2916    0.0000 H   0  0  0  0  0  0  0  0  0  0  0  0
    2.2895    2.4385    0.0000 H   0  0  0  0  0  0  0  0  0  0  0  0
  2  9  1  0  0  0  0
  2  7  1  6  0  0  0
  2 22  1  0  0  0  0
  3  6  1  1  0  0  0
  3 24  1  0  0  0  0
  3  2  1  0  0  0  0
  4  1  1  0  0  0  0
  4  6  1  1  0  0  0
  4 23  1  0  0  0  0
  5  1  2  0  0  0  0
  6 25  1  1  0  0  0
  6 12  1  0  0  0  0
  7  8  1  6  0  0  0
  7 21  1  0  0  0  0
  9 10  1  0  0  0  0
 10  4  1  0  0  0  0
 11  1  1  0  0  0  0
 12 16  1  0  0  0  0
 13  3  1  0  0  0  0
 14  8  3  0  0  0  0
 15  5  1  0  0  0  0
 16  5  1  0  0  0  0
 17 13  1  0  0  0  0
 17  7  1  0  0  0  0
 18 20  1  0  0  0  0
 18 15  1  0  0  0  0
 19 18  2  0  0  0  0
 20 11  1  0  0  0  0
 21 26  1  0  0  0  0
M  END
$$$$
O[C@@H]1[C@@H](C)OC([C@@H]([C@H]1O)O)O
 OpenBabel07182308452D

 11 11  0  0  0  0  0  0  0  0999 V2000
    0.7146   -0.4123    0.0000 C   0  0  1  0  0  0  0  0  0  0  0  0
    0.7146    0.4123    0.0000 C   0  0  3  0  0  0  0  0  0  0  0  0
    0.0000    0.8245    0.0000 O   0  0  0  0  0  0  0  0  0  0  0  0
   -0.7146    0.4123    0.0000 C   0  0  1  0  0  0  0  0  0  0  0  0
   -0.7146   -0.4123    0.0000 C   0  0  2  0  0  0  0  0  0  0  0  0
    0.0000   -0.8245    0.0000 C   0  0  2  0  0  0  0  0  0  0  0  0
   -1.4293   -0.8245    0.0000 O   0  0  0  0  0  0  0  0  0  0  0  0
    0.0000   -1.6491    0.0000 O   0  0  0  0  0  0  0  0  0  0  0  0
    1.4293   -0.8245    0.0000 O   0  0  0  0  0  0  0  0  0  0  0  0
    1.4293    0.8245    0.0000 O   0  0  0  0  0  0  0  0  0  0  0  0
   -1.4293    0.8245    0.0000 C   0  0  0  0  0  0  0  0  0  0  0  0
  1  2  1  0  0  0  0
  1  6  1  0  0  0  0
  1  9  1  6  0  0  0
  2  3  1  0  0  0  0
  2 10  1  0  0  0  0
  3  4  1  0  0  0  0
  4  5  1  0  0  0  0
  4 11  1  1  0  0  0
  5  6  1  0  0  0  0
  5  7  1  6  0  0  0
  6  8  1  1  0  0  0
M  END
$$$$
Oc1c(O)cccc1O
 OpenBabel07182308452D

 11 11  0  0  0  0  0  0  0  0999 V2000
   -2.8586   -0.8245    0.0000 C   0  0  0  0  0  0  0  0  0  0  0  0
   -3.5733   -0.4123    0.0000 C   0  0  0  0  0  0  0  0  0  0  0  0
   -4.2880   -0.8245    0.0000 C   0  0  0  0  0  0  0  0  0  0  0  0
   -4.2880   -1.6491    0.0000 C   0  0  0  0  0  0  0  0  0  0  0  0
   -3.5733   -2.0616    0.0000 C   0  0  0  0  0  0  0  0  0  0  0  0
   -2.8586   -1.6491    0.0000 C   0  0  0  0  0  0  0  0  0  0  0  0
   -5.0025   -0.4123    0.0000 O   0  0  0  0  0  0  0  0  0  0  0  0
   -5.0025   -2.0616    0.0000 O   0  0  0  0  0  0  0  0  0  0  0  0
   -3.5733   -2.8862    0.0000 O   0  0  0  0  0  0  0  0  0  0  0  0
   -5.8140   -1.5931    0.0000 H   0  0  0  0  0  0  0  0  0  0  0  0
   -4.3848   -3.3547    0.0000 H   0  0  0  0  0  0  0  0  0  0  0  0
  1  2  2  0  0  0  0
  1  6  1  0  0  0  0
  2  3  1  0  0  0  0
  3  4  2  0  0  0  0
  3  7  1  0  0  0  0
  4  5  1  0  0  0  0
  4  8  1  0  0  0  0
  5  6  2  0  0  0  0
  5  9  1  0  0  0  0
  8 10  1  0  0  0  0
  9 11  1  0  0  0  0
M  END
$$$$
C[N+]1=CC(c2c1ccc1c2cccc1)(C)C
 OpenBabel07182308452D

 16 18  0  0  0  0  0  0  0  0999 V2000
    2.3317    0.3082    0.0000 C   0  0  0  0  0  0  0  0  0  0  0  0
    2.9439    0.8570    0.0000 N   0  3  0  0  0  0  0  0  0  0  0  0
    2.8590    1.6792    0.0000 C   0  0  0  0  0  0  0  0  0  0  0  0
    3.6135    2.0126    0.0000 C   0  0  0  0  0  0  0  0  0  0  0  0
    4.1623    1.4005    0.0000 C   0  0  0  0  0  0  0  0  0  0  0  0
    4.9873    1.4005    0.0000 C   0  0  0  0  0  0  0  0  0  0  0  0
    5.3998    0.6888    0.0000 C   0  0  0  0  0  0  0  0  0  0  0  0
    4.9873   -0.0269    0.0000 C   0  0  0  0  0  0  0  0  0  0  0  0
    4.1623   -0.0269    0.0000 C   0  0  0  0  0  0  0  0  0  0  0  0
    3.7499    0.6888    0.0000 C   0  0  0  0  0  0  0  0  0  0  0  0
    6.2248    0.6888    0.0000 C   0  0  0  0  0  0  0  0  0  0  0  0
    6.6372    1.4005    0.0000 C   0  0  0  0  0  0  0  0  0  0  0  0
    6.2248    2.1162    0.0000 C   0  0  0  0  0  0  0  0  0  0  0  0
    5.3998    2.1162    0.0000 C   0  0  0  0  0  0  0  0  0  0  0  0
    3.2010    2.7285    0.0000 C   0  0  0  0  0  0  0  0  0  0  0  0
    4.2788    2.5015    0.0000 C   0  0  0  0  0  0  0  0  0  0  0  0
  1  2  1  0  0  0  0
  2  3  2  0  0  0  0
  2 10  1  0  0  0  0
  3  4  1  0  0  0  0
  4  5  1  0  0  0  0
  4 15  1  0  0  0  0
  4 16  1  0  0  0  0
  5  6  1  0  0  0  0
  5 10  2  0  0  0  0
  6  7  1  0  0  0  0
  6 14  2  0  0  0  0
  7  8  1  0  0  0  0
  7 11  2  0  0  0  0
  8  9  2  0  0  0  0
  9 10  1  0  0  0  0
 11 12  1  0  0  0  0
 12 13  2  0  0  0  0
 13 14  1  0  0  0  0
M  CHG  1   2   1
M  END
$$$$
C=C1Nc2c(C1(C)C)c1ccccc1cc2
 OpenBabel07182308452D

 16 18  0  0  0  0  0  0  0  0999 V2000
   -2.1433    2.0918    0.0000 C   0  0  0  0  0  0  0  0  0  0  0  0
   -2.9439    0.8570    0.0000 N   0  0  0  0  0  0  0  0  0  0  0  0
   -2.8549    1.6792    0.0000 C   0  0  0  0  0  0  0  0  0  0  0  0
   -3.6093    2.0126    0.0000 C   0  0  0  0  0  0  0  0  0  0  0  0
   -4.1623    1.4005    0.0000 C   0  0  0  0  0  0  0  0  0  0  0  0
   -4.9873    1.4005    0.0000 C   0  0  0  0  0  0  0  0  0  0  0  0
   -5.3998    0.6888    0.0000 C   0  0  0  0  0  0  0  0  0  0  0  0
   -4.9873   -0.0269    0.0000 C   0  0  0  0  0  0  0  0  0  0  0  0
   -4.1623   -0.0269    0.0000 C   0  0  0  0  0  0  0  0  0  0  0  0
   -3.7499    0.6888    0.0000 C   0  0  0  0  0  0  0  0  0  0  0  0
   -6.2248    0.6888    0.0000 C   0  0  0  0  0  0  0  0  0  0  0  0
   -6.6372    1.4005    0.0000 C   0  0  0  0  0  0  0  0  0  0  0  0
   -6.2248    2.1162    0.0000 C   0  0  0  0  0  0  0  0  0  0  0  0
   -5.3998    2.1162    0.0000 C   0  0  0  0  0  0  0  0  0  0  0  0
   -3.1968    2.7285    0.0000 C   0  0  0  0  0  0  0  0  0  0  0  0
   -4.2788    2.5015    0.0000 C   0  0  0  0  0  0  0  0  0  0  0  0
  1  3  2  0  0  0  0
  2  3  1  0  0  0  0
  2 10  1  0  0  0  0
  3  4  1  0  0  0  0
  4  5  1  0  0  0  0
  4 15  1  0  0  0  0
  4 16  1  0  0  0  0
  5  6  1  0  0  0  0
  5 10  2  0  0  0  0
  6  7  1  0  0  0  0
  6 14  2  0  0  0  0
  7  8  1  0  0  0  0
  7 11  2  0  0  0  0
  8  9  2  0  0  0  0
  9 10  1  0  0  0  0
 11 12  1  0  0  0  0
 12 13  2  0  0  0  0
 13 14  1  0  0  0  0
M  END
$$$$
O=C1C=C[C@]2(C(=C1)[C@@H](F)C[C@@H]1[C@@H]2[C@@H](O)C[C@]2([C@H]1CC[C@H]2O)C)C
 OpenBabel07182308452D

 28 31  0  0  0  0  0  0  0  0999 V2000
   -1.1089   -0.3275    0.0000 C   0  0  1  0  0  0  0  0  0  0  0  0
    1.0410    0.8953    0.0000 C   0  0  2  0  0  0  0  0  0  0  0  0
   -1.1089   -1.1525    0.0000 C   0  0  0  0  0  0  0  0  0  0  0  0
    1.8272    1.1428    0.0000 C   0  0  1  0  0  0  0  0  0  0  0  0
   -0.3955    0.0848    0.0000 C   0  0  2  0  0  0  0  0  0  0  0  0
    0.3178   -0.3323    0.0000 C   0  0  2  0  0  0  0  0  0  0  0  0
    1.0312    0.0753    0.0000 C   0  0  2  0  0  0  0  0  0  0  0  0
   -1.8222    0.0848    0.0000 C   0  0  0  0  0  0  0  0  0  0  0  0
    0.3275    1.3175    0.0000 C   0  0  0  0  0  0  0  0  0  0  0  0
   -0.3906    0.9098    0.0000 C   0  0  2  0  0  0  0  0  0  0  0  0
    0.3130   -1.1574    0.0000 C   0  0  0  0  0  0  0  0  0  0  0  0
   -0.4002   -1.5651    0.0000 C   0  0  2  0  0  0  0  0  0  0  0  0
   -1.8222   -1.5651    0.0000 C   0  0  0  0  0  0  0  0  0  0  0  0
    2.3027    0.4731    0.0000 C   0  0  0  0  0  0  0  0  0  0  0  0
    1.8126   -0.1916    0.0000 C   0  0  0  0  0  0  0  0  0  0  0  0
   -2.5308   -0.3275    0.0000 C   0  0  0  0  0  0  0  0  0  0  0  0
   -2.5308   -1.1525    0.0000 C   0  0  0  0  0  0  0  0  0  0  0  0
   -3.2491   -1.5602    0.0000 O   0  0  0  0  0  0  0  0  0  0  0  0
    2.5405    1.5650    0.0000 O   0  0  0  0  0  0  0  0  0  0  0  0
   -1.1137    0.5022    0.0000 C   0  0  0  0  0  0  0  0  0  0  0  0
    1.0361    1.7252    0.0000 C   0  0  0  0  0  0  0  0  0  0  0  0
   -0.4052   -2.3901    0.0000 F   0  0  0  0  0  0  0  0  0  0  0  0
   -1.1040    1.3273    0.0000 O   0  0  0  0  0  0  0  0  0  0  0  0
    1.0264   -0.7497    0.0000 H   0  0  0  0  0  0  0  0  0  0  0  0
   -0.4002   -0.7353    0.0000 H   0  0  0  0  0  0  0  0  0  0  0  0
    0.3130    0.4925    0.0000 H   0  0  0  0  0  0  0  0  0  0  0  0
    3.3858    1.0891    0.0000 H   0  0  0  0  0  0  0  0  0  0  0  0
   -1.0983    2.2973    0.0000 H   0  0  0  0  0  0  0  0  0  0  0  0
  1  5  1  6  0  0  0
  1 20  1  0  0  0  0
  2  9  1  0  0  0  0
  2 21  1  0  0  0  0
  2  7  1  1  0  0  0
  3  1  1  0  0  0  0
  4  2  1  6  0  0  0
  4 19  1  0  0  0  0
  4 14  1  0  0  0  0
  5  6  1  1  0  0  0
  5 25  1  0  0  0  0
  6  7  1  6  0  0  0
  6 26  1  0  0  0  0
  6 11  1  0  0  0  0
  7 24  1  6  0  0  0
  8  1  1  0  0  0  0
  9 10  1  0  0  0  0
 10  5  1  1  0  0  0
 10 23  1  0  0  0  0
 11 12  1  0  0  0  0
 12  3  1  0  0  0  0
 12 22  1  6  0  0  0
 13  3  2  0  0  0  0
 14 15  1  0  0  0  0
 15  7  1  0  0  0  0
 16  8  2  0  0  0  0
 17 13  1  0  0  0  0
 17 16  1  0  0  0  0
 18 17  2  0  0  0  0
 19 27  1  0  0  0  0
 23 28  1  0  0  0  0
M  END
$$$$
[O-][51Cr](=O)(=O)[O-]
 OpenBabel07182308452D

  5  4  0  0  0  0  0  0  0  0999 V2000
    2.4750   -0.0000    0.0000 O   0  5  0  0  0  0  0  0  0  0  0  0
    1.6500   -0.0000    0.0000 Cr  0  0  0  0  0  0  0  0  0  0  0  0
    1.6500    0.8250    0.0000 O   0  0  0  0  0  0  0  0  0  0  0  0
    1.6500   -0.8250    0.0000 O   0  0  0  0  0  0  0  0  0  0  0  0
    0.8250    0.0000    0.0000 O   0  5  0  0  0  0  0  0  0  0  0  0
  1  2  1  0  0  0  0
  2  3  2  0  0  0  0
  2  4  2  0  0  0  0
  2  5  1  0  0  0  0
M  ISO  1   2  51
M  CHG  2   1  -1   5  -1
M  END
$$$$
[131I]c1ccccc1
 OpenBabel07182308452D

  7  7  0  0  0  0  0  0  0  0999 V2000
   -1.0714   -0.0337    0.0000 C   0  0  0  0  0  0  0  0  0  0  0  0
   -1.0736    0.7911    0.0000 C   0  0  0  0  0  0  0  0  0  0  0  0
   -0.2461    1.2707    0.0000 I   0  0  0  0  0  0  0  0  0  0  0  0
   -1.7882    1.2029    0.0000 C   0  0  0  0  0  0  0  0  0  0  0  0
   -2.5022    0.7891    0.0000 C   0  0  0  0  0  0  0  0  0  0  0  0
   -2.5015   -0.0366    0.0000 C   0  0  0  0  0  0  0  0  0  0  0  0
   -1.7853   -0.4475    0.0000 C   0  0  0  0  0  0  0  0  0  0  0  0
  1  2  2  0  0  0  0
  1  7  1  0  0  0  0
  2  3  1  0  0  0  0
  2  4  1  0  0  0  0
  4  5  2  0  0  0  0
  6  5  1  0  0  0  0
  7  6  2  0  0  0  0
M  ISO  1   3 131
M  END
$$$$
O=C1C=C[C@]2(C(=C1)CC[C@@H]1[C@@H]2C(=O)C[C@]2([C@H]1C[C@@H]([C@H]2O)C)C)C
 OpenBabel07182308452D

 28 31  0  0  1  0  0  0  0  0999 V2000
   -1.3626    2.0417    0.0000 C   0  0  0  0  0  0  0  0  0  0  0  0
    2.6232    0.6018    0.0000 C   0  0  0  0  0  0  0  0  0  0  0  0
    0.1073    0.1997    0.0000 C   0  0  0  0  0  0  0  0  0  0  0  0
    2.6520    2.7844    0.0000 C   0  0  0  0  0  0  0  0  0  0  0  0
    1.8399    2.6391    0.0000 C   0  0  0  0  0  0  0  0  0  0  0  0
    4.2475    0.8922    0.0000 C   0  0  0  0  0  0  0  0  0  0  0  0
    3.4354    0.7470    0.0000 C   0  0  0  0  0  0  0  0  0  0  0  0
    0.0962    2.2244    0.0000 C   0  0  0  0  0  0  0  0  0  0  0  0
    3.9960    2.2989    0.0000 C   0  0  0  0  0  0  0  0  0  0  0  0
    0.9990    0.3114    0.0000 C   0  0  0  0  0  0  0  0  0  0  0  0
   -0.5867    1.7614    0.0000 C   0  0  1  0  0  0  0  0  0  0  0  0
    3.1838    2.1537    0.0000 C   0  0  0  0  0  0  0  0  0  0  0  0
    4.5278    1.6682    0.0000 C   0  0  0  0  0  0  0  0  0  0  0  0
    1.5596    1.8632    0.0000 C   0  0  1  0  0  0  0  0  0  0  0  0
    0.7475    1.7180    0.0000 C   0  0  1  0  0  0  0  0  0  0  0  0
    1.8111    0.4566    0.0000 C   0  0  0  0  0  0  0  0  0  0  0  0
    2.0914    1.2325    0.0000 C   0  0  2  0  0  0  0  0  0  0  0  0
    2.9035    1.3777    0.0000 C   0  0  2  0  0  0  0  0  0  0  0  0
    0.4672    0.9421    0.0000 C   0  0  2  0  0  0  0  0  0  0  0  0
   -0.3574    0.9689    0.0000 C   0  0  2  0  0  0  0  0  0  0  0  0
    5.3399    1.8134    0.0000 O   0  0  0  0  0  0  0  0  0  0  0  0
    2.3429   -0.1741    0.0000 O   0  0  0  0  0  0  0  0  0  0  0  0
   -0.2978    0.1460    0.0000 O   0  0  0  0  0  0  0  0  0  0  0  0
   -1.1887    1.1973    0.0000 H   0  0  0  0  0  0  0  0  0  0  0  0
    1.0278    2.4939    0.0000 H   0  0  0  0  0  0  0  0  0  0  0  0
    1.2793    1.0873    0.0000 H   0  0  0  0  0  0  0  0  0  0  0  0
    2.3717    2.0084    0.0000 H   0  0  0  0  0  0  0  0  0  0  0  0
   -1.1006   -0.3984    0.0000 H   0  0  0  0  0  0  0  0  0  0  0  0
  5  4  1  0  0  0  0
  7  6  2  0  0  0  0
 11  1  1  0  0  0  0
 11  8  1  0  0  0  0
 11 24  1  6  0  0  0
 12  4  1  0  0  0  0
 12  9  2  0  0  0  0
 13  6  1  0  0  0  0
 13  9  1  0  0  0  0
 14  5  1  0  0  0  0
 14 15  1  6  0  0  0
 14 25  1  0  0  0  0
 15  8  1  0  0  0  0
 15 19  1  1  0  0  0
 15 26  1  0  0  0  0
 16 10  1  0  0  0  0
 17 14  1  1  0  0  0
 17 16  1  0  0  0  0
 17 27  1  0  0  0  0
 18  2  1  0  0  0  0
 18  7  1  0  0  0  0
 18 12  1  0  0  0  0
 18 17  1  6  0  0  0
 19  3  1  1  0  0  0
 19 10  1  0  0  0  0
 20 11  1  6  0  0  0
 20 19  1  0  0  0  0
 20 23  1  0  0  0  0
 21 13  2  0  0  0  0
 22 16  2  0  0  0  0
 23 28  1  0  0  0  0
M  END
$$$$
C/C/1=C\2/N=C([C@H](C2(C)C)C)/C=C/2\N=C(/C(=C/3\[N-]C([C@@]4(N=C1[C@@H](C)C4(C)C)C)[C@H](C)C3(C)C)/C)[C@H](C2(C)C)C
 OpenBabel07182308452D

 38 42  0  0  1  0  0  0  0  0999 V2000
   -1.5388    2.4462    0.0000 C   0  0  1  0  0  0  0  0  0  0  0  0
   -1.3417   -0.2847    0.0000 C   0  0  0  0  0  0  0  0  0  0  0  0
   -1.8932    0.2519    0.0000 C   0  0  2  0  0  0  0  0  0  0  0  0
    1.5754   -0.2628    0.0000 C   0  0  2  0  0  0  0  0  0  0  0  0
    2.0902    3.2313    0.0000 C   0  0  1  0  0  0  0  0  0  0  0  0
    1.5390    3.7824    0.0000 C   0  0  0  0  0  0  0  0  0  0  0  0
   -1.3161    3.7205    0.0000 C   0  0  1  0  0  0  0  0  0  0  0  0
   -1.8894    3.1399    0.0000 C   0  0  0  0  0  0  0  0  0  0  0  0
   -0.7685    2.5959    0.0000 N   0  0  0  0  0  0  0  0  0  0  0  0
   -0.6005    3.3809    0.0000 C   0  0  0  0  0  0  0  0  0  0  0  0
    0.1114    3.7642    0.0000 C   0  0  0  0  0  0  0  0  0  0  0  0
    0.1076    4.5822    0.0000 C   0  0  0  0  0  0  0  0  0  0  0  0
    0.8014    3.3955    0.0000 C   0  0  0  0  0  0  0  0  0  0  0  0
    0.9511    2.5850    0.0000 N   0  0  0  0  0  0  0  0  0  0  0  0
    1.6996    2.4754    0.0000 C   0  0  0  0  0  0  0  0  0  0  0  0
    2.0975    1.7598    0.0000 C   0  0  0  0  0  0  0  0  0  0  0  0
    1.7360    1.0735    0.0000 C   0  0  0  0  0  0  0  0  0  0  0  0
    0.9401    0.8872    0.0000 N   0  0  0  0  0  0  0  0  0  0  0  0
    0.8014    0.1059    0.0000 C   0  0  0  0  0  0  0  0  0  0  0  0
    0.1114   -0.2701    0.0000 C   0  0  0  0  0  0  0  0  0  0  0  0
   -0.6005    0.1241    0.0000 C   0  0  0  0  0  0  0  0  0  0  0  0
   -1.5242    1.0113    0.0000 C   0  0  3  0  0  0  0  0  0  0  0  0
   -0.7246    0.8726    0.0000 N   0  5  0  0  0  0  0  0  0  0  0  0
   -1.7616   -1.0039    0.0000 C   0  0  0  0  0  0  0  0  0  0  0  0
   -2.7181    0.2556    0.0000 C   0  0  0  0  0  0  0  0  0  0  0  0
   -0.9329   -1.0076    0.0000 C   0  0  0  0  0  0  0  0  0  0  0  0
    0.1114   -1.1062    0.0000 C   0  0  0  0  0  0  0  0  0  0  0  0
    2.1157    0.2921    0.0000 C   0  0  0  0  0  0  0  0  0  0  0  0
    2.8239    0.7082    0.0000 C   0  0  0  0  0  0  0  0  0  0  0  0
    2.8277   -0.1241    0.0000 C   0  0  0  0  0  0  0  0  0  0  0  0
    1.5717   -1.0916    0.0000 C   0  0  0  0  0  0  0  0  0  0  0  0
    1.5389    4.6004    0.0000 C   0  0  0  0  0  0  0  0  0  0  0  0
    2.3604    3.7824    0.0000 C   0  0  0  0  0  0  0  0  0  0  0  0
    2.9081    3.2275    0.0000 C   0  0  0  0  0  0  0  0  0  0  0  0
   -2.6013    3.5561    0.0000 C   0  0  0  0  0  0  0  0  0  0  0  0
   -2.6013    2.7273    0.0000 C   0  0  0  0  0  0  0  0  0  0  0  0
   -1.3234    4.5493    0.0000 C   0  0  0  0  0  0  0  0  0  0  0  0
   -2.2581    2.0335    0.0000 C   0  0  0  0  0  0  0  0  0  0  0  0
  1 38  1  6  0  0  0
  2  3  1  0  0  0  0
  2 24  1  0  0  0  0
  2 26  1  0  0  0  0
  3 22  1  0  0  0  0
  3 25  1  1  0  0  0
  4 19  1  0  0  0  0
  4 31  1  6  0  0  0
  5  6  1  0  0  0  0
  5 34  1  6  0  0  0
  6 13  1  0  0  0  0
  6 32  1  0  0  0  0
  6 33  1  0  0  0  0
  7  8  1  0  0  0  0
  7 37  1  6  0  0  0
  8  1  1  0  0  0  0
  8 35  1  0  0  0  0
  8 36  1  0  0  0  0
  9  1  1  0  0  0  0
 10  9  2  0  0  0  0
 10  7  1  0  0  0  0
 11 10  1  0  0  0  0
 12 11  1  0  0  0  0
 13 11  2  0  0  0  0
 14 13  1  0  0  0  0
 15 14  2  0  0  0  0
 15  5  1  0  0  0  0
 16 15  1  0  0  0  0
 16 17  2  0  0  0  0
 17 18  1  0  0  0  0
 17 28  1  0  0  0  0
 18 19  2  0  0  0  0
 19 20  1  0  0  0  0
 20 21  2  0  0  0  0
 21  2  1  0  0  0  0
 21 23  1  0  0  0  0
 22  1  1  0  0  0  0
 23 22  1  0  0  0  0
 27 20  1  0  0  0  0
 28  4  1  0  0  0  0
 29 28  1  0  0  0  0
 30 28  1  0  0  0  0
M  CHG  1  23  -1
M  END
$$$$
[C-]#N
 OpenBabel07182308452D

  2  1  0  0  1  0  0  0  0  0999 V2000
    0.1478    2.4937    0.0000 C   0  5  0  0  0  0  0  0  0  0  0  0
    0.1478    3.0706    0.0000 N   0  0  0  0  0  0  0  0  0  0  0  0
  1  2  3  0  0  0  0
M  CHG  1   1  -1
M  END
$$$$
[57Co+3]
 OpenBabel07182308452D

  1  0  0  0  1  0  0  0  0  0999 V2000
    0.1340    1.7923    0.0000 Co  0  1  0  0  0 15  0  0  0  0  0  0
M  ISO  1   1  57
M  CHG  1   1   3
M  END
$$$$
[60Co+3]
 OpenBabel07182308452D

  1  0  0  0  1  0  0  0  0  0999 V2000
   -0.1671    1.5184    0.0000 Co  0  1  0  0  0 15  0  0  0  0  0  0
M  ISO  1   1  60
M  CHG  1   1   3
M  END
$$$$
[131I]c1cc2cc3cc([131I])c(=O)c(c3oc2c(c1O)[131I])[131I]
 OpenBabel07182308452D

 21 23  0  0  0  0  0  0  0  0999 V2000
   -2.1462   -1.1034    0.0000 C   0  0  0  0  0  0  0  0  0  0  0  0
   -2.8637   -0.6961    0.0000 I   0  0  0  0  0  0  0  0  0  0  0  0
   -2.1403   -1.9284    0.0000 C   0  0  0  0  0  0  0  0  0  0  0  0
   -2.8518   -2.3461    0.0000 O   0  0  0  0  0  0  0  0  0  0  0  0
   -1.4228   -2.3357    0.0000 C   0  0  0  0  0  0  0  0  0  0  0  0
   -1.4168   -3.1607    0.0000 I   0  0  0  0  0  0  0  0  0  0  0  0
   -0.7114   -1.9180    0.0000 C   0  0  0  0  0  0  0  0  0  0  0  0
   -0.7175   -1.0931    0.0000 C   0  0  0  0  0  0  0  0  0  0  0  0
   -0.0059   -0.6754    0.0000 C   0  0  0  0  0  0  0  0  0  0  0  0
    0.7113   -1.0826    0.0000 C   0  0  0  0  0  0  0  0  0  0  0  0
    1.4229   -0.6649    0.0000 C   0  0  0  0  0  0  0  0  0  0  0  0
    2.1403   -1.0722    0.0000 C   0  0  0  0  0  0  0  0  0  0  0  0
    2.8518   -0.6546    0.0000 I   0  0  0  0  0  0  0  0  0  0  0  0
    2.1464   -1.8972    0.0000 C   0  0  0  0  0  0  0  0  0  0  0  0
    2.8638   -2.3045    0.0000 O   0  0  0  0  0  0  0  0  0  0  0  0
    1.4348   -2.3149    0.0000 C   0  0  0  0  0  0  0  0  0  0  0  0
    1.4408   -3.1398    0.0000 I   0  0  0  0  0  0  0  0  0  0  0  0
    0.7174   -1.9076    0.0000 C   0  0  0  0  0  0  0  0  0  0  0  0
    0.0060   -2.3253    0.0000 O   0  0  0  0  0  0  0  0  0  0  0  0
   -1.4348   -0.6858    0.0000 C   0  0  0  0  0  0  0  0  0  0  0  0
   -3.6666   -1.8835    0.0000 H   0  0  0  0  0  0  0  0  0  0  0  0
  1  2  1  0  0  0  0
  1  3  2  0  0  0  0
  3  4  1  0  0  0  0
  3  5  1  0  0  0  0
  4 21  1  0  0  0  0
  5  6  1  0  0  0  0
  5  7  2  0  0  0  0
  7 19  1  0  0  0  0
  8  7  1  0  0  0  0
  8 20  2  0  0  0  0
  9  8  1  0  0  0  0
 10  9  2  0  0  0  0
 10 18  1  0  0  0  0
 11 10  1  0  0  0  0
 12 11  2  0  0  0  0
 12 13  1  0  0  0  0
 14 12  1  0  0  0  0
 14 15  2  0  0  0  0
 16 14  1  0  0  0  0
 16 17  1  0  0  0  0
 18 16  2  0  0  0  0
 19 18  1  0  0  0  0
 20  1  1  0  0  0  0
M  ISO  4   2 131   6 131  13 131  17 131
M  END
$$$$
Clc1c(Cl)ccc(c1Cl)Cl
 OpenBabel07182308452D

 10 10  0  0  0  0  0  0  0  0999 V2000
   -0.0158    0.6858    0.0000 C   0  0  0  0  0  0  0  0  0  0  0  0
    0.6956    1.1034    0.0000 C   0  0  0  0  0  0  0  0  0  0  0  0
    0.6895    1.9284    0.0000 C   0  0  0  0  0  0  0  0  0  0  0  0
    1.4011    2.3461    0.0000 Cl  0  0  0  0  0  0  0  0  0  0  0  0
   -0.0278    2.3357    0.0000 C   0  0  0  0  0  0  0  0  0  0  0  0
   -0.0338    3.1607    0.0000 Cl  0  0  0  0  0  0  0  0  0  0  0  0
   -0.7392    1.9181    0.0000 C   0  0  0  0  0  0  0  0  0  0  0  0
   -1.4567    2.3253    0.0000 Cl  0  0  0  0  0  0  0  0  0  0  0  0
   -0.7332    1.0931    0.0000 C   0  0  0  0  0  0  0  0  0  0  0  0
   -1.4446    0.6754    0.0000 Cl  0  0  0  0  0  0  0  0  0  0  0  0
  1  2  2  0  0  0  0
  2  3  1  0  0  0  0
  3  4  1  0  0  0  0
  3  5  2  0  0  0  0
  5  6  1  0  0  0  0
  5  7  1  0  0  0  0
  7  8  1  0  0  0  0
  7  9  2  0  0  0  0
  9  1  1  0  0  0  0
  9 10  1  0  0  0  0
M  END
$$$$
C#CC1(O)CCC2C1CCC1C2CCC2=CC(=O)CCC12
 OpenBabel07182308452D

 22 25  0  0  0  0  0  0  0  0999 V2000
    3.9629    0.9934    0.0000 C   0  0  3  0  0  0  0  0  0  0  0  0
    3.4311    1.6241    0.0000 C   0  0  0  0  0  0  0  0  0  0  0  0
    2.6190    1.4789    0.0000 C   0  0  0  0  0  0  0  0  0  0  0  0
    2.3387    0.7029    0.0000 C   0  0  3  0  0  0  0  0  0  0  0  0
    2.8705    0.0722    0.0000 C   0  0  3  0  0  0  0  0  0  0  0  0
    3.6826    0.2174    0.0000 C   0  0  3  0  0  0  0  0  0  0  0  0
    4.3340   -0.2889    0.0000 C   0  0  0  0  0  0  0  0  0  0  0  0
    5.0168    0.1741    0.0000 C   0  0  0  0  0  0  0  0  0  0  0  0
    4.7875    0.9666    0.0000 C   0  0  3  0  0  0  0  0  0  0  0  0
    5.5484    1.2854    0.0000 C   0  0  0  0  0  0  0  0  0  0  0  0
    6.3093    1.6043    0.0000 C   0  0  0  0  0  0  0  0  0  0  0  0
    4.9089    1.7826    0.0000 O   0  0  0  0  0  0  0  0  0  0  0  0
    2.5902   -0.7037    0.0000 C   0  0  0  0  0  0  0  0  0  0  0  0
    1.7781   -0.8489    0.0000 C   0  0  0  0  0  0  0  0  0  0  0  0
    1.2463   -0.2182    0.0000 C   0  0  0  0  0  0  0  0  0  0  0  0
    0.4342   -0.3634    0.0000 C   0  0  0  0  0  0  0  0  0  0  0  0
   -0.0976    0.2673    0.0000 C   0  0  0  0  0  0  0  0  0  0  0  0
   -0.9098    0.1221    0.0000 O   0  0  0  0  0  0  0  0  0  0  0  0
    0.1827    1.0432    0.0000 C   0  0  0  0  0  0  0  0  0  0  0  0
    0.9948    1.1884    0.0000 C   0  0  0  0  0  0  0  0  0  0  0  0
    1.5266    0.5577    0.0000 C   0  0  3  0  0  0  0  0  0  0  0  0
    5.8112    2.1387    0.0000 H   0  0  0  0  0  0  0  0  0  0  0  0
  1  2  1  0  0  0  0
  1  6  1  0  0  0  0
  1  9  1  0  0  0  0
  2  3  1  0  0  0  0
  3  4  1  0  0  0  0
  4  5  1  0  0  0  0
  4 21  1  0  0  0  0
  5  6  1  0  0  0  0
  5 13  1  0  0  0  0
  6  7  1  0  0  0  0
  7  8  1  0  0  0  0
  8  9  1  0  0  0  0
  9 10  1  0  0  0  0
  9 12  1  0  0  0  0
 10 11  3  0  0  0  0
 12 22  1  0  0  0  0
 13 14  1  0  0  0  0
 14 15  1  0  0  0  0
 15 16  2  0  0  0  0
 15 21  1  0  0  0  0
 16 17  1  0  0  0  0
 17 18  2  0  0  0  0
 17 19  1  0  0  0  0
 19 20  1  0  0  0  0
 20 21  1  0  0  0  0
M  END
$$$$
[18F-]
 OpenBabel07182308452D

  1  0  0  0  0  0  0  0  0  0999 V2000
    0.0000    0.0000    0.0000 F   0  5  0  0  0  0  0  0  0  0  0  0
M  ISO  1   1  18
M  CHG  1   1  -1
M  END
$$$$
C[75Se]CC
 OpenBabel07182308452D

  4  3  0  0  1  0  0  0  0  0999 V2000
    1.7605    1.0164    0.0000 C   0  0  0  0  0  0  0  0  0  0  0  0
    2.4750    1.4289    0.0000 Se  0  0  0  0  0  0  0  0  0  0  0  0
    3.1895    1.8414    0.0000 C   0  0  0  0  0  0  0  0  0  0  0  0
    3.9039    1.4289    0.0000 C   0  0  0  0  0  0  0  0  0  0  0  0
  1  2  1  0  0  0  0
  2  3  1  0  0  0  0
  3  4  1  0  0  0  0
M  ISO  1   2  75
M  END
$$$$
CCC[197Hg+]
 OpenBabel07182308452D

  4  3  0  0  0  0  0  0  0  0999 V2000
   -1.0365    0.4148    0.0000 C   0  0  0  0  0  0  0  0  0  0  0  0
   -0.3273    0.0115    0.0000 C   0  0  0  0  0  0  0  0  0  0  0  0
   -0.3273   -0.8135    0.0000 C   0  0  0  0  0  0  0  0  0  0  0  0
    0.3911   -1.2259    0.0000 Hg  0  3  0  0  0  0  0  0  0  0  0  0
  2  1  1  0  0  0  0
  2  3  1  0  0  0  0
  4  3  1  0  0  0  0
M  ISO  1   4 197
M  CHG  1   4   1
M  END
$$$$
[O-]P(=O)(O)O
 OpenBabel07182308452D

  7  6  0  0  0  0  0  0  0  0999 V2000
   -1.1133    0.9900    0.0000 O   0  0  0  0  0  0  0  0  0  0  0  0
   -1.1133    1.8150    0.0000 P   0  0  0  0  0  0  0  0  0  0  0  0
   -1.9384    1.8150    0.0000 O   0  0  0  0  0  0  0  0  0  0  0  0
   -0.2892    1.8150    0.0000 O   0  0  0  0  0  0  0  0  0  0  0  0
   -1.1133    2.6400    0.0000 O   0  5  0  0  0  0  0  0  0  0  0  0
   -1.9533    0.5050    0.0000 H   0  0  0  0  0  0  0  0  0  0  0  0
   -2.4234    2.6550    0.0000 H   0  0  0  0  0  0  0  0  0  0  0  0
  1  2  1  0  0  0  0
  1  6  1  0  0  0  0
  2  3  1  0  0  0  0
  2  4  2  0  0  0  0
  2  5  1  0  0  0  0
  3  7  1  0  0  0  0
M  CHG  1   5  -1
M  END
$$$$
[O-][Cl](=O)(=O)=O
 OpenBabel07182308452D

  5  4  0  0  0  0  0  0  0  0999 V2000
   -0.4808   -0.0580    0.0000 Cl  0  0  0  0  0  0  0  0  0  0  0  0
    0.2294   -0.4735    0.0000 O   0  5  0  0  0  0  0  0  0  0  0  0
   -1.1959   -0.4735    0.0000 O   0  0  0  0  0  0  0  0  0  0  0  0
   -0.0797    0.6572    0.0000 O   0  0  0  0  0  0  0  0  0  0  0  0
   -0.8964    0.6572    0.0000 O   0  0  0  0  0  0  0  0  0  0  0  0
  2  1  1  0  0  0  0
  3  1  2  0  0  0  0
  4  1  2  0  0  0  0
  5  1  2  0  0  0  0
M  CHG  1   2  -1
M  END
$$$$
[123I-]
 OpenBabel07182308452D

  1  0  0  0  0  0  0  0  0  0999 V2000
    0.0000    0.0000    0.0000 I   0  5  0  0  0  0  0  0  0  0  0  0
M  ISO  1   1 123
M  CHG  1   1  -1
M  END
$$$$
[111In+3]
 OpenBabel07182308452D

  1  0  0  0  0  0  0  0  0  0999 V2000
    2.1434    0.6187    0.0000 In  0  1  0  0  0 15  0  0  0  0  0  0
M  ISO  1   1 111
M  CHG  1   1   3
M  END
$$$$
[81Kr]
 OpenBabel07182308452D

  1  0  0  0  0  0  0  0  0  0999 V2000
    0.0000    0.0000    0.0000 Kr  0  0  0  0  0  0  0  0  0  0  0  0
M  ISO  1   1  81
M  END
$$$$
[127Xe]
 OpenBabel07182308452D

  1  0  0  0  0  0  0  0  0  0999 V2000
    0.0000    0.0000    0.0000 Xe  0  0  0  0  0  0  0  0  0  0  0  0
M  ISO  1   1 127
M  END
$$$$
[O-]c1cccc2c1nccc2
 OpenBabel07182308452D

 11 12  0  0  0  0  0  0  0  0999 V2000
   -0.8735   -0.7630    0.0000 O   0  5  0  0  0  0  0  0  0  0  0  0
   -0.8736    0.8868    0.0000 N   0  0  0  0  0  0  0  0  0  0  0  0
   -1.5880    0.4743    0.0000 C   0  0  0  0  0  0  0  0  0  0  0  0
   -2.3025    0.8868    0.0000 C   0  0  0  0  0  0  0  0  0  0  0  0
   -1.5880   -0.3506    0.0000 C   0  0  0  0  0  0  0  0  0  0  0  0
   -3.0169    0.4743    0.0000 C   0  0  0  0  0  0  0  0  0  0  0  0
   -2.3025    1.7118    0.0000 C   0  0  0  0  0  0  0  0  0  0  0  0
   -2.3025   -0.7630    0.0000 C   0  0  0  0  0  0  0  0  0  0  0  0
   -3.0169   -0.3506    0.0000 C   0  0  0  0  0  0  0  0  0  0  0  0
   -0.8736    1.7118    0.0000 C   0  0  0  0  0  0  0  0  0  0  0  0
   -1.5880    2.1242    0.0000 C   0  0  0  0  0  0  0  0  0  0  0  0
  1  5  1  0  0  0  0
  2  3  1  0  0  0  0
  2 10  2  0  0  0  0
  3  4  2  0  0  0  0
  3  5  1  0  0  0  0
  4  6  1  0  0  0  0
  4  7  1  0  0  0  0
  5  8  2  0  0  0  0
  6  9  2  0  0  0  0
  7 11  2  0  0  0  0
  8  9  1  0  0  0  0
 10 11  1  0  0  0  0
M  CHG  1   1  -1
M  END
$$$$
[82Rb+]
 OpenBabel07182308452D

  1  0  0  0  0  0  0  0  0  0999 V2000
    0.0000    0.0000    0.0000 Rb  0  3  0  0  0 15  0  0  0  0  0  0
M  ISO  1   1  82
M  CHG  1   1   1
M  END
$$$$
[O-]P(=O)(F)[O-]
 OpenBabel07182308452D

  5  4  0  0  0  0  0  0  0  0999 V2000
   -0.2247   -0.0072    0.0000 P   0  0  0  0  0  0  0  0  0  0  0  0
    0.1858   -0.7171    0.0000 O   0  5  0  0  0  0  0  0  0  0  0  0
    0.1858    0.7075    0.0000 O   0  5  0  0  0  0  0  0  0  0  0  0
   -0.9441    0.3984    0.0000 O   0  0  0  0  0  0  0  0  0  0  0  0
   -0.9441   -0.4225    0.0000 F   0  0  0  0  0  0  0  0  0  0  0  0
  2  1  1  0  0  0  0
  3  1  1  0  0  0  0
  4  1  2  0  0  0  0
  5  1  1  0  0  0  0
M  CHG  2   2  -1   3  -1
M  END
$$$$
Cl[111In](Cl)Cl
 OpenBabel07182308452D

  4  3  0  0  0  0  0  0  0  0999 V2000
    0.6187    0.7145    0.0000 Cl  0  0  0  0  0  0  0  0  0  0  0  0
    0.2062    0.0000    0.0000 In  0  0  0  0  0  0  0  0  0  0  0  0
    0.6187   -0.7145    0.0000 Cl  0  0  0  0  0  0  0  0  0  0  0  0
   -0.6187    0.0000    0.0000 Cl  0  0  0  0  0  0  0  0  0  0  0  0
  1  2  1  0  0  0  0
  2  3  1  0  0  0  0
  2  4  1  0  0  0  0
M  ISO  1   2 111
M  END
$$$$
[89Sr+2]
 OpenBabel07182308452D

  1  0  0  0  0  0  0  0  0  0999 V2000
   -1.5910    0.0000    0.0000 Sr  0  2  0  0  0 15  0  0  0  0  0  0
M  ISO  1   1  89
M  CHG  1   1   2
M  END
$$$$
OS(=S)(=O)O
 OpenBabel07182308452D

  7  6  0  0  0  0  0  0  0  0999 V2000
    0.0000    0.8250    0.0000 O   0  0  0  0  0  0  0  0  0  0  0  0
   -0.0000   -0.8250    0.0000 O   0  0  0  0  0  0  0  0  0  0  0  0
   -0.8250    0.0000    0.0000 O   0  0  0  0  0  0  0  0  0  0  0  0
    0.8250    0.0000    0.0000 S   0  0  0  0  0  0  0  0  0  0  0  0
    0.0000    0.0000    0.0000 S   0  0  0  0  0  0  0  0  0  0  0  0
    0.8400    1.3100    0.0000 H   0  0  0  0  0  0  0  0  0  0  0  0
   -0.8400   -1.3100    0.0000 H   0  0  0  0  0  0  0  0  0  0  0  0
  1  6  1  0  0  0  0
  2  7  1  0  0  0  0
  5  1  1  0  0  0  0
  5  2  1  0  0  0  0
  5  3  2  0  0  0  0
  5  4  2  0  0  0  0
M  END
$$$$
N[13C](=O)N
 OpenBabel07182308452D

  8  7  0  0  0  0  0  0  0  0999 V2000
    0.0000   -0.2062    0.0000 C   0  0  0  0  0  0  0  0  0  0  0  0
    0.7145   -0.6187    0.0000 N   0  0  0  0  0  0  0  0  0  0  0  0
    0.0000    0.6187    0.0000 O   0  0  0  0  0  0  0  0  0  0  0  0
   -0.7145   -0.6187    0.0000 N   0  0  0  0  0  0  0  0  0  0  0  0
    0.7145   -1.6032    0.0000 H   0  0  0  0  0  0  0  0  0  0  0  0
    1.5671   -0.1264    0.0000 H   0  0  0  0  0  0  0  0  0  0  0  0
   -1.5671   -0.1264    0.0000 H   0  0  0  0  0  0  0  0  0  0  0  0
   -0.7145   -1.6032    0.0000 H   0  0  0  0  0  0  0  0  0  0  0  0
  2  1  1  0  0  0  0
  2  5  1  0  0  0  0
  2  6  1  0  0  0  0
  3  1  2  0  0  0  0
  4  1  1  0  0  0  0
  4  7  1  0  0  0  0
  4  8  1  0  0  0  0
M  ISO  1   1  13
M  END
$$$$
C[Si](O)(C)C
 OpenBabel07182308452D

  5  4  0  0  0  0  0  0  0  0999 V2000
   -0.4161    1.1269    0.0000 C   0  0  0  0  0  0  0  0  0  0  0  0
   -0.1141    0.0000    0.0000 C   0  0  0  0  0  0  0  0  0  0  0  0
   -1.5431    0.8250    0.0000 C   0  0  0  0  0  0  0  0  0  0  0  0
   -1.2411   -0.3019    0.0000 O   0  0  0  0  0  0  0  0  0  0  0  0
   -0.8286    0.4125    0.0000 Si  0  0  0  0  0  0  0  0  0  0  0  0
  5  1  1  0  0  0  0
  5  2  1  0  0  0  0
  5  3  1  0  0  0  0
  5  4  1  0  0  0  0
M  END
$$$$
C[SiH2]C
 OpenBabel07182308452D

  3  2  0  0  0  0  0  0  0  0999 V2000
   -2.0661   -1.1269    0.0000 C   0  0  0  0  0  0  0  0  0  0  0  0
   -2.0661    0.5230    0.0000 C   0  0  0  0  0  0  0  0  0  0  0  0
   -2.0661   -0.3019    0.0000 Si  0  0  0  0  0  0  0  0  0  0  0  0
  3  1  1  0  0  0  0
  3  2  1  0  0  0  0
M  END
$$$$
O=[Si]=O
 OpenBabel07182308452D

  3  2  0  0  0  0  0  0  0  0999 V2000
    1.6536   -0.0161    0.0000 O   0  0  0  0  0  0  0  0  0  0  0  0
    3.3036   -0.0161    0.0000 O   0  0  0  0  0  0  0  0  0  0  0  0
    2.4786   -0.0161    0.0000 Si  0  0  0  0  0  0  0  0  0  0  0  0
  3  1  2  0  0  0  0
  3  2  2  0  0  0  0
M  END
$$$$
N[14C](=O)N
 OpenBabel07182308452D

  8  7  0  0  0  0  0  0  0  0999 V2000
    0.0000   -0.2010    0.0000 C   0  0  0  0  0  0  0  0  0  0  0  0
    0.0000    0.6177    0.0000 O   0  0  0  0  0  0  0  0  0  0  0  0
    0.7120   -0.6177    0.0000 N   0  0  0  0  0  0  0  0  0  0  0  0
   -0.7120   -0.6177    0.0000 N   0  0  0  0  0  0  0  0  0  0  0  0
    0.7062   -1.6022    0.0000 H   0  0  0  0  0  0  0  0  0  0  0  0
    1.5675   -0.1305    0.0000 H   0  0  0  0  0  0  0  0  0  0  0  0
   -1.5675   -0.1305    0.0000 H   0  0  0  0  0  0  0  0  0  0  0  0
   -0.7062   -1.6022    0.0000 H   0  0  0  0  0  0  0  0  0  0  0  0
  2  1  2  0  0  0  0
  3  1  1  0  0  0  0
  3  5  1  0  0  0  0
  3  6  1  0  0  0  0
  4  1  1  0  0  0  0
  4  7  1  0  0  0  0
  4  8  1  0  0  0  0
M  ISO  1   1  14
M  END
$$$$
O[C@@H]1CO[C@@H]([C@@H]([C@H]1O)O)O
 OpenBabel07182308452D

 13 13  0  0  0  0  0  0  0  0999 V2000
    1.4988    1.4224    0.0000 C   0  0  0  0  0  0  0  0  0  0  0  0
    0.6919    1.5939    0.0000 O   0  0  0  0  0  0  0  0  0  0  0  0
    0.4369    2.3785    0.0000 C   0  0  2  0  0  0  0  0  0  0  0  0
   -0.3700    2.5500    0.0000 O   0  0  0  0  0  0  0  0  0  0  0  0
    0.9890    2.9916    0.0000 C   0  0  2  0  0  0  0  0  0  0  0  0
    0.7340    3.7762    0.0000 O   0  0  0  0  0  0  0  0  0  0  0  0
    1.7959    2.8201    0.0000 C   0  0  1  0  0  0  0  0  0  0  0  0
    2.3480    3.4332    0.0000 O   0  0  0  0  0  0  0  0  0  0  0  0
    2.0509    2.0354    0.0000 C   0  0  2  0  0  0  0  0  0  0  0  0
    2.8578    1.8639    0.0000 O   0  0  0  0  0  0  0  0  0  0  0  0
    1.3830    4.4971    0.0000 H   0  0  0  0  0  0  0  0  0  0  0  0
    3.2968    3.2315    0.0000 H   0  0  0  0  0  0  0  0  0  0  0  0
    3.1576    0.9414    0.0000 H   0  0  0  0  0  0  0  0  0  0  0  0
  1  2  1  0  0  0  0
  1  9  1  0  0  0  0
  2  3  1  0  0  0  0
  3  4  1  6  0  0  0
  3  5  1  0  0  0  0
  5  6  1  6  0  0  0
  5  7  1  0  0  0  0
  6 11  1  0  0  0  0
  7  8  1  1  0  0  0
  7  9  1  0  0  0  0
  8 12  1  0  0  0  0
  9 10  1  6  0  0  0
 10 13  1  0  0  0  0
M  END
$$$$
C=C1C(=O)C2(C(C1CC2)(C)C)C
 OpenBabel07182308452D

 12 13  0  0  0  0  0  0  0  0999 V2000
    1.7268   -3.5738    0.0000 C   0  0  0  0  0  0  0  0  0  0  0  0
    1.8837   -1.8806    0.0000 C   0  0  0  0  0  0  0  0  0  0  0  0
    2.0911   -2.3507    0.0000 C   0  0  0  0  0  0  0  0  0  0  0  0
    2.0046   -3.1711    0.0000 C   0  0  0  0  0  0  0  0  0  0  0  0
   -0.0494   -1.7334    0.0000 C   0  0  0  0  0  0  0  0  0  0  0  0
    1.1078   -4.3802    0.0000 C   0  0  0  0  0  0  0  0  0  0  0  0
    0.6701   -2.2010    0.0000 C   0  0  0  0  0  0  0  0  0  0  0  0
    1.4238   -1.8656    0.0000 C   0  0  3  0  0  0  0  0  0  0  0  0
    0.5836   -3.0213    0.0000 C   0  0  0  0  0  0  0  0  0  0  0  0
    1.1322   -2.6644    0.0000 C   0  0  0  0  0  0  0  0  0  0  0  0
    1.2509   -3.5064    0.0000 C   0  0  3  0  0  0  0  0  0  0  0  0
   -0.1958   -3.3739    0.0000 O   0  0  0  0  0  0  0  0  0  0  0  0
  4  3  1  0  0  0  0
  7  5  2  0  0  0  0
  8  3  1  0  0  0  0
  8  7  1  0  0  0  0
  9  7  1  0  0  0  0
 10  1  1  0  0  0  0
 10  2  1  0  0  0  0
 10  8  1  0  0  0  0
 11  4  1  0  0  0  0
 11  6  1  0  0  0  0
 11  9  1  0  0  0  0
 11 10  1  0  0  0  0
 12  9  2  0  0  0  0
M  END
$$$$
O=[Ti]=O
 OpenBabel07182308452D

  3  2  0  0  0  0  0  0  0  0999 V2000
   -1.1895    0.4575    0.0000 O   0  0  0  0  0  0  0  0  0  0  0  0
    0.4604    0.4575    0.0000 O   0  0  0  0  0  0  0  0  0  0  0  0
   -0.3645    0.4575    0.0000 Ti  0  0  0  0  0  0  0  0  0  0  0  0
  1  3  2  0  0  0  0
  3  2  2  0  0  0  0
M  END
$$$$
Cc1cccc(c1)[123I]
 OpenBabel07182308452D

  8  8  0  0  0  0  0  0  0  0999 V2000
   -2.2755    2.1149    0.0000 C   0  0  0  0  0  0  0  0  0  0  0  0
   -1.5610    2.5275    0.0000 C   0  0  0  0  0  0  0  0  0  0  0  0
   -0.8465    2.1149    0.0000 C   0  0  0  0  0  0  0  0  0  0  0  0
   -0.8465    1.2899    0.0000 C   0  0  0  0  0  0  0  0  0  0  0  0
   -1.5610    0.8775    0.0000 C   0  0  0  0  0  0  0  0  0  0  0  0
   -2.2755    1.2899    0.0000 C   0  0  0  0  0  0  0  0  0  0  0  0
   -1.5610    0.0524    0.0000 I   0  0  0  0  0  0  0  0  0  0  0  0
   -0.1320    2.5275    0.0000 C   0  0  0  0  0  0  0  0  0  0  0  0
  1  2  2  0  0  0  0
  2  3  1  0  0  0  0
  3  8  1  0  0  0  0
  3  4  2  0  0  0  0
  4  5  1  0  0  0  0
  5  6  2  0  0  0  0
  5  7  1  0  0  0  0
  6  1  1  0  0  0  0
M  ISO  1   7 123
M  END
$$$$
OP(=O)=O
 OpenBabel07182308452D

  5  4  0  0  1  0  0  0  0  0999 V2000
    4.8228    1.2423    0.0000 P   0  0  0  0  0  0  0  0  0  0  0  0
    4.8228    2.0673    0.0000 O   0  0  0  0  0  0  0  0  0  0  0  0
    3.9978    1.2423    0.0000 O   0  0  0  0  0  0  0  0  0  0  0  0
    5.4062    0.6589    0.0000 O   0  0  0  0  0  0  0  0  0  0  0  0
    5.6628    2.5523    0.0000 H   0  0  0  0  0  0  0  0  0  0  0  0
  1  2  1  0  0  0  0
  1  3  2  0  0  0  0
  1  4  2  0  0  0  0
  2  5  1  0  0  0  0
M  END
$$$$
[O-]P(=O)=O
 OpenBabel07182308452D

  4  3  0  0  1  0  0  0  0  0999 V2000
    5.1625   -2.0673    0.0000 O   0  0  0  0  0  0  0  0  0  0  0  0
    3.7540   -1.4840    0.0000 O   0  0  0  0  0  0  0  0  0  0  0  0
    4.5791   -0.6588    0.0000 O   0  5  0  0  0  0  0  0  0  0  0  0
    4.5791   -1.4840    0.0000 P   0  0  0  0  0  0  0  0  0  0  0  0
  4  1  2  0  0  0  0
  4  2  2  0  0  0  0
  4  3  1  0  0  0  0
M  CHG  1   3  -1
M  END
$$$$
Clc1ccc(cc1)Cl
 OpenBabel07182308452D

  8  8  0  0  0  0  0  0  0  0999 V2000
   -2.1540    0.0367    0.0000 C   0  0  0  0  0  0  0  0  0  0  0  0
   -2.8651    0.4549    0.0000 C   0  0  0  0  0  0  0  0  0  0  0  0
   -3.5761    0.0367    0.0000 C   0  0  0  0  0  0  0  0  0  0  0  0
   -3.5761   -0.7998    0.0000 C   0  0  0  0  0  0  0  0  0  0  0  0
   -2.8651   -1.2181    0.0000 C   0  0  0  0  0  0  0  0  0  0  0  0
   -2.1540   -0.7998    0.0000 C   0  0  0  0  0  0  0  0  0  0  0  0
   -1.4011   -1.2599    0.0000 Cl  0  0  0  0  0  0  0  0  0  0  0  0
   -4.3289    0.4549    0.0000 Cl  0  0  0  0  0  0  0  0  0  0  0  0
  1  2  2  0  0  0  0
  1  6  1  0  0  0  0
  2  3  1  0  0  0  0
  3  4  2  0  0  0  0
  3  8  1  0  0  0  0
  4  5  1  0  0  0  0
  5  6  2  0  0  0  0
  6  7  1  0  0  0  0
M  END
$$$$
[Sn+2]
 OpenBabel07182308452D

  1  0  0  0  0  0  0  0  0  0999 V2000
    0.0000   -1.6500    0.0000 Sn  0  2  0  0  0 15  0  0  0  0  0  0
M  CHG  1   1   2
M  END
$$$$
CC1CCCC(C1)(C)C
 OpenBabel07182308452D

  9  9  0  0  0  0  0  0  0  0999 V2000
    0.6622   -0.2237    0.0000 C   0  0  0  0  0  0  0  0  0  0  0  0
    1.3885   -0.6303    0.0000 C   0  0  0  0  0  0  0  0  0  0  0  0
    0.6622    0.6012    0.0000 C   0  0  0  0  0  0  0  0  0  0  0  0
    2.0945   -0.2323    0.0000 C   0  0  0  0  0  0  0  0  0  0  0  0
    1.3885    1.0225    0.0000 C   0  0  3  0  0  0  0  0  0  0  0  0
    2.0945    0.6012    0.0000 C   0  0  0  0  0  0  0  0  0  0  0  0
    2.3909   -0.9994    0.0000 C   0  0  0  0  0  0  0  0  0  0  0  0
    2.9226   -0.0873    0.0000 C   0  0  0  0  0  0  0  0  0  0  0  0
    1.3885    1.8331    0.0000 C   0  0  0  0  0  0  0  0  0  0  0  0
  1  2  1  0  0  0  0
  1  3  1  0  0  0  0
  2  4  1  0  0  0  0
  3  5  1  0  0  0  0
  4  6  1  0  0  0  0
  4  7  1  0  0  0  0
  4  8  1  0  0  0  0
  5  9  1  0  0  0  0
  5  6  1  0  0  0  0
M  END
$$$$
O[Se](=O)(=O)O
 OpenBabel07182308452D

  7  6  0  0  0  0  0  0  0  0999 V2000
    0.0000    0.0000    0.0000 Se  0  0  0  0  0  0  0  0  0  0  0  0
    0.0000    0.8250    0.0000 O   0  0  0  0  0  0  0  0  0  0  0  0
    0.8250    0.0000    0.0000 O   0  0  0  0  0  0  0  0  0  0  0  0
    0.0000   -0.8250    0.0000 O   0  0  0  0  0  0  0  0  0  0  0  0
   -0.8250    0.0000    0.0000 O   0  0  0  0  0  0  0  0  0  0  0  0
    0.8400    1.3100    0.0000 H   0  0  0  0  0  0  0  0  0  0  0  0
    1.3100   -0.8400    0.0000 H   0  0  0  0  0  0  0  0  0  0  0  0
  2  1  1  0  0  0  0
  2  6  1  0  0  0  0
  3  1  1  0  0  0  0
  3  7  1  0  0  0  0
  4  1  2  0  0  0  0
  5  1  2  0  0  0  0
M  END
$$$$
F
 OpenBabel07182308452D

  1  0  0  0  0  0  0  0  0  0999 V2000
    0.0000    0.0000    0.0000 F   0  0  0  0  0  0  0  0  0  0  0  0
M  END
$$$$
[O-]N(=O)=O
 OpenBabel07182308452D

  4  3  0  0  0  0  0  0  0  0999 V2000
    0.3250    0.6187    0.0000 O   0  5  0  0  0  0  0  0  0  0  0  0
    1.0395   -0.6187    0.0000 O   0  0  0  0  0  0  0  0  0  0  0  0
    0.3250   -0.2062    0.0000 N   0  0  0  0  0  0  0  0  0  0  0  0
   -0.3894   -0.6187    0.0000 O   0  0  0  0  0  0  0  0  0  0  0  0
  3  1  1  0  0  0  0
  3  2  2  0  0  0  0
  3  4  2  0  0  0  0
M  CHG  1   1  -1
M  END
$$$$
Cl[Al](Cl)Cl
 OpenBabel07182308452D

  4  3  0  0  0  0  0  0  0  0999 V2000
    1.2375    0.7145    0.0000 Cl  0  0  0  0  0  0  0  0  0  0  0  0
    0.8250    0.0000    0.0000 Al  0  0  0  0  0  0  0  0  0  0  0  0
    1.2375   -0.7145    0.0000 Cl  0  0  0  0  0  0  0  0  0  0  0  0
    0.0000    0.0000    0.0000 Cl  0  0  0  0  0  0  0  0  0  0  0  0
  1  2  1  0  0  0  0
  2  3  1  0  0  0  0
  2  4  1  0  0  0  0
M  END
$$$$
OO
 OpenBabel07182308452D

  4  3  0  0  0  0  0  0  0  0999 V2000
   -1.4702    1.7659    0.0000 O   0  0  0  0  0  0  0  0  0  0  0  0
   -0.8789    1.1905    0.0000 O   0  0  0  0  0  0  0  0  0  0  0  0
   -1.2319    2.7062    0.0000 H   0  0  0  0  0  0  0  0  0  0  0  0
   -1.1172    0.2502    0.0000 H   0  0  0  0  0  0  0  0  0  0  0  0
  1  2  1  0  0  0  0
  1  3  1  0  0  0  0
  2  4  1  0  0  0  0
M  END
$$$$
F[Sn]F
 OpenBabel07182308452D

  3  2  0  0  0  0  0  0  0  0999 V2000
    1.2375   -0.7145    0.0000 F   0  0  0  0  0  0  0  0  0  0  0  0
    1.9520   -1.1270    0.0000 Sn  0  0  0  0  0  0  0  0  0  0  0  0
    2.6664   -0.7145    0.0000 F   0  0  0  0  0  0  0  0  0  0  0  0
  1  2  1  0  0  0  0
  2  3  1  0  0  0  0
M  RAD  1   2   1
M  END
$$$$
CC1CCCC(C1)O
 OpenBabel07182308452D

  8  8  0  0  0  0  0  0  0  0999 V2000
   -1.7861    1.8562    0.0000 C   0  0  0  0  0  0  0  0  0  0  0  0
   -1.7861    1.0312    0.0000 C   0  0  3  0  0  0  0  0  0  0  0  0
   -2.5006    0.6187    0.0000 C   0  0  0  0  0  0  0  0  0  0  0  0
   -2.5006   -0.2062    0.0000 C   0  0  0  0  0  0  0  0  0  0  0  0
   -1.7861   -0.6187    0.0000 C   0  0  0  0  0  0  0  0  0  0  0  0
   -1.0717   -0.2062    0.0000 C   0  0  3  0  0  0  0  0  0  0  0  0
   -1.0717    0.6187    0.0000 C   0  0  0  0  0  0  0  0  0  0  0  0
   -0.3572   -0.6187    0.0000 O   0  0  0  0  0  0  0  0  0  0  0  0
  1  2  1  0  0  0  0
  2  3  1  0  0  0  0
  2  7  1  0  0  0  0
  3  4  1  0  0  0  0
  4  5  1  0  0  0  0
  5  6  1  0  0  0  0
  6  7  1  0  0  0  0
  6  8  1  0  0  0  0
M  END
$$$$
FS(F)(F)(F)(F)F
 OpenBabel07182308452D

  7  6  0  0  0  0  0  0  0  0999 V2000
   -0.4125   -0.7145    0.0000 F   0  0  0  0  0  0  0  0  0  0  0  0
    0.4125    0.7145    0.0000 F   0  0  0  0  0  0  0  0  0  0  0  0
   -0.4125    0.7145    0.0000 F   0  0  0  0  0  0  0  0  0  0  0  0
   -0.8250   -0.0000    0.0000 F   0  0  0  0  0  0  0  0  0  0  0  0
    0.4125   -0.7145    0.0000 F   0  0  0  0  0  0  0  0  0  0  0  0
    0.8250    0.0000    0.0000 F   0  0  0  0  0  0  0  0  0  0  0  0
    0.0000    0.0000    0.0000 S   0  0  0  0  0  0  0  0  0  0  0  0
  7  1  1  0  0  0  0
  7  2  1  0  0  0  0
  7  3  1  0  0  0  0
  7  4  1  0  0  0  0
  7  5  1  0  0  0  0
  7  6  1  0  0  0  0
M  END
$$$$
[O-]C(=O)CO
 OpenBabel07182308452D

  6  5  0  0  0  0  0  0  0  0999 V2000
   -0.0196    1.8755    0.0000 C   0  0  0  0  0  0  0  0  0  0  0  0
   -0.7341    2.2880    0.0000 O   0  0  0  0  0  0  0  0  0  0  0  0
    0.6947    2.2880    0.0000 O   0  5  0  0  0  0  0  0  0  0  0  0
   -0.0196    1.0504    0.0000 C   0  0  0  0  0  0  0  0  0  0  0  0
   -0.0196    0.2254    0.0000 O   0  0  0  0  0  0  0  0  0  0  0  0
   -0.8596   -0.2596    0.0000 H   0  0  0  0  0  0  0  0  0  0  0  0
  1  4  1  0  0  0  0
  2  1  2  0  0  0  0
  3  1  1  0  0  0  0
  4  5  1  0  0  0  0
  5  6  1  0  0  0  0
M  CHG  1   3  -1
M  END
$$$$
Oc1cc(C)c(c(c1)C)Cl
 OpenBabel07182308452D

 11 11  0  0  0  0  0  0  0  0999 V2000
    0.7145    2.0625    0.0000 C   0  0  0  0  0  0  0  0  0  0  0  0
    0.7145    1.2375    0.0000 C   0  0  0  0  0  0  0  0  0  0  0  0
    1.4289    0.8250    0.0000 C   0  0  0  0  0  0  0  0  0  0  0  0
    1.4289   -0.0000    0.0000 C   0  0  0  0  0  0  0  0  0  0  0  0
    0.7145   -0.4125    0.0000 C   0  0  0  0  0  0  0  0  0  0  0  0
    0.0000    0.0000    0.0000 C   0  0  0  0  0  0  0  0  0  0  0  0
    0.0000    0.8250    0.0000 C   0  0  0  0  0  0  0  0  0  0  0  0
   -0.7145    1.2375    0.0000 Cl  0  0  0  0  0  0  0  0  0  0  0  0
   -0.7145   -0.4125    0.0000 C   0  0  0  0  0  0  0  0  0  0  0  0
    2.1434   -0.4125    0.0000 O   0  0  0  0  0  0  0  0  0  0  0  0
    2.1434   -1.3495    0.0000 H   0  0  0  0  0  0  0  0  0  0  0  0
  1  2  1  0  0  0  0
  2  3  2  0  0  0  0
  2  7  1  0  0  0  0
  3  4  1  0  0  0  0
  4  5  2  0  0  0  0
  4 10  1  0  0  0  0
  5  6  1  0  0  0  0
  6  7  2  0  0  0  0
  6  9  1  0  0  0  0
  7  8  1  0  0  0  0
 10 11  1  0  0  0  0
M  END
$$$$
[O-]Cl
 OpenBabel07182308452D

  2  1  0  0  0  0  0  0  0  0999 V2000
    5.8452   -6.8116    0.0000 Cl  0  0  0  0  0  0  0  0  0  0  0  0
    6.6702   -6.8116    0.0000 O   0  5  0  0  0  0  0  0  0  0  0  0
  2  1  1  0  0  0  0
M  CHG  1   2  -1
M  END
$$$$
O[Se](=O)O
 OpenBabel07182308452D

  6  5  0  0  0  0  0  0  0  0999 V2000
    1.2375    0.7145    0.0000 O   0  0  0  0  0  0  0  0  0  0  0  0
    0.8250    0.0000    0.0000 Se  0  0  0  0  0  0  0  0  0  0  0  0
    1.2375   -0.7145    0.0000 O   0  0  0  0  0  0  0  0  0  0  0  0
    0.0000    0.0000    0.0000 O   0  0  0  0  0  0  0  0  0  0  0  0
    2.2075    0.7145    0.0000 H   0  0  0  0  0  0  0  0  0  0  0  0
    0.7525   -1.5545    0.0000 H   0  0  0  0  0  0  0  0  0  0  0  0
  1  2  1  0  0  0  0
  1  5  1  0  0  0  0
  2  3  1  0  0  0  0
  2  4  2  0  0  0  0
  3  6  1  0  0  0  0
M  END
$$$$
[Se]
 OpenBabel07182308452D

  1  0  0  0  0  0  0  0  0  0999 V2000
    1.5395    0.4125    0.0000 Se  0  0  0  0  0  0  0  0  0  0  0  0
M  RAD  1   1   3
M  END
$$$$
[Cr]
 OpenBabel07182308452D

  1  0  0  0  0  0  0  0  0  0999 V2000
    0.0000    0.0000    0.0000 Cr  0  0  0  0  0 15  0  0  0  0  0  0
M  END
$$$$
[Mo]
 OpenBabel07182308452D

  1  0  0  0  0  0  0  0  0  0999 V2000
    0.0000    0.0000    0.0000 Mo  0  0  0  0  0 15  0  0  0  0  0  0
M  END
$$$$
[51Cr]
 OpenBabel07182308452D

  1  0  0  0  0  0  0  0  0  0999 V2000
    0.0000    0.0000    0.0000 Cr  0  0  0  0  0 15  0  0  0  0  0  0
M  ISO  1   1  51
M  END
$$$$
C[Se]C
 OpenBabel07182308452D

  3  2  0  0  1  0  0  0  0  0999 V2000
   20.5828  -16.2685    0.0000 C   0  0  0  0  0  0  0  0  0  0  0  0
   21.3468  -15.8191    0.0000 Se  0  0  0  0  0  0  0  0  0  0  0  0
   22.5152  -16.2685    0.0000 C   0  0  0  0  0  0  0  0  0  0  0  0
  1  2  1  0  0  0  0
  2  3  1  0  0  0  0
M  END
$$$$
Oc1cccc2c1nccc2
 OpenBabel07182308452D

 12 13  0  0  0  0  0  0  0  0999 V2000
    2.1434    1.2375    0.0000 C   0  0  0  0  0  0  0  0  0  0  0  0
   -0.7145    1.2375    0.0000 C   0  0  0  0  0  0  0  0  0  0  0  0
    1.4289    0.8250    0.0000 C   0  0  0  0  0  0  0  0  0  0  0  0
    0.0000    0.8250    0.0000 C   0  0  0  0  0  0  0  0  0  0  0  0
    2.1434    2.0625    0.0000 C   0  0  0  0  0  0  0  0  0  0  0  0
   -0.7145    2.0625    0.0000 C   0  0  0  0  0  0  0  0  0  0  0  0
    0.7145    1.2375    0.0000 C   0  0  0  0  0  0  0  0  0  0  0  0
    1.4289    2.4750    0.0000 C   0  0  0  0  0  0  0  0  0  0  0  0
    0.7145    2.0625    0.0000 C   0  0  0  0  0  0  0  0  0  0  0  0
    0.0000    2.4750    0.0000 N   0  0  0  0  0  0  0  0  0  0  0  0
    1.4289    3.3000    0.0000 O   0  0  0  0  0  0  0  0  0  0  0  0
    2.2404    3.7685    0.0000 H   0  0  0  0  0  0  0  0  0  0  0  0
  1  3  2  0  0  0  0
  1  5  1  0  0  0  0
  2  4  2  0  0  0  0
  2  6  1  0  0  0  0
  3  7  1  0  0  0  0
  4  7  1  0  0  0  0
  5  8  2  0  0  0  0
  6 10  2  0  0  0  0
  7  9  2  0  0  0  0
  8  9  1  0  0  0  0
  8 11  1  0  0  0  0
  9 10  1  0  0  0  0
 11 12  1  0  0  0  0
M  END
$$$$
[Ba+2]
 OpenBabel07182308452D

  1  0  0  0  0  0  0  0  0  0999 V2000
    0.0000    0.0000    0.0000 Ba  0  2  0  0  0 15  0  0  0  0  0  0
M  CHG  1   1   2
M  END
$$$$
CN1CCCN=C1
 OpenBabel07182308452D

  7  7  0  0  0  0  0  0  0  0999 V2000
    4.1801    5.5902    0.0000 C   0  0  0  0  0  0  0  0  0  0  0  0
    2.7512    7.2402    0.0000 C   0  0  0  0  0  0  0  0  0  0  0  0
    2.0367    6.8277    0.0000 C   0  0  0  0  0  0  0  0  0  0  0  0
    3.4656    6.8277    0.0000 C   0  0  0  0  0  0  0  0  0  0  0  0
    2.7512    5.5902    0.0000 C   0  0  0  0  0  0  0  0  0  0  0  0
    2.0367    6.0027    0.0000 N   0  0  0  0  0  0  0  0  0  0  0  0
    3.4656    6.0027    0.0000 N   0  0  0  0  0  0  0  0  0  0  0  0
  3  2  1  0  0  0  0
  4  2  1  0  0  0  0
  6  3  1  0  0  0  0
  6  5  2  0  0  0  0
  7  1  1  0  0  0  0
  7  4  1  0  0  0  0
  7  5  1  0  0  0  0
M  END
$$$$
Oc1cccc2c1C(=O)c1c(C2)cccc1O
 OpenBabel07182308452D

 19 21  0  0  0  0  0  0  0  0999 V2000
    2.1434   -3.7125    0.0000 O   0  0  0  0  0  0  0  0  0  0  0  0
    2.1434   -2.8875    0.0000 C   0  0  0  0  0  0  0  0  0  0  0  0
    1.4289   -2.4750    0.0000 C   0  0  0  0  0  0  0  0  0  0  0  0
    1.4289   -1.6500    0.0000 C   0  0  0  0  0  0  0  0  0  0  0  0
    2.1434   -1.2375    0.0000 C   0  0  0  0  0  0  0  0  0  0  0  0
    2.8579   -1.6500    0.0000 C   0  0  0  0  0  0  0  0  0  0  0  0
    3.5724   -1.2375    0.0000 C   0  0  0  0  0  0  0  0  0  0  0  0
    4.2868   -1.6500    0.0000 C   0  0  0  0  0  0  0  0  0  0  0  0
    5.0013   -1.2375    0.0000 C   0  0  0  0  0  0  0  0  0  0  0  0
    5.7158   -1.6500    0.0000 C   0  0  0  0  0  0  0  0  0  0  0  0
    5.7158   -2.4750    0.0000 C   0  0  0  0  0  0  0  0  0  0  0  0
    5.0013   -2.8875    0.0000 C   0  0  0  0  0  0  0  0  0  0  0  0
    5.0013   -3.7125    0.0000 O   0  0  0  0  0  0  0  0  0  0  0  0
    4.2868   -2.4750    0.0000 C   0  0  0  0  0  0  0  0  0  0  0  0
    3.5724   -2.8875    0.0000 C   0  0  0  0  0  0  0  0  0  0  0  0
    3.5724   -3.7125    0.0000 O   0  0  0  0  0  0  0  0  0  0  0  0
    2.8579   -2.4750    0.0000 C   0  0  0  0  0  0  0  0  0  0  0  0
    1.3319   -4.1810    0.0000 H   0  0  0  0  0  0  0  0  0  0  0  0
    4.1898   -4.1810    0.0000 H   0  0  0  0  0  0  0  0  0  0  0  0
  1  2  1  0  0  0  0
  1 18  1  0  0  0  0
  2  3  2  0  0  0  0
  2 17  1  0  0  0  0
  3  4  1  0  0  0  0
  4  5  2  0  0  0  0
  5  6  1  0  0  0  0
  6  7  1  0  0  0  0
  6 17  2  0  0  0  0
  7  8  1  0  0  0  0
  8  9  2  0  0  0  0
  8 14  1  0  0  0  0
  9 10  1  0  0  0  0
 10 11  2  0  0  0  0
 11 12  1  0  0  0  0
 12 13  1  0  0  0  0
 12 14  2  0  0  0  0
 13 19  1  0  0  0  0
 14 15  1  0  0  0  0
 15 16  2  0  0  0  0
 15 17  1  0  0  0  0
M  END
$$$$
[S-2]
 OpenBabel07182308452D

  1  0  0  0  0  0  0  0  0  0999 V2000
   -0.4125    0.0000    0.0000 S   0  6  0  0  0  0  0  0  0  0  0  0
M  CHG  1   1  -2
M  END
$$$$
Ic1cc2cc3cc(I)c(=O)c(c3oc2c(c1O)I)I
 OpenBabel07182308452D

 21 23  0  0  0  0  0  0  0  0999 V2000
   -0.7145    2.0035    0.0000 C   0  0  0  0  0  0  0  0  0  0  0  0
   -1.4289    2.4161    0.0000 C   0  0  0  0  0  0  0  0  0  0  0  0
   -2.1436    2.0035    0.0000 C   0  0  0  0  0  0  0  0  0  0  0  0
   -2.1436    1.1786    0.0000 C   0  0  0  0  0  0  0  0  0  0  0  0
   -1.4289    0.7661    0.0000 C   0  0  0  0  0  0  0  0  0  0  0  0
   -0.7145    1.1786    0.0000 C   0  0  0  0  0  0  0  0  0  0  0  0
    0.0000    0.7661    0.0000 C   0  0  0  0  0  0  0  0  0  0  0  0
    0.7146    1.1786    0.0000 C   0  0  0  0  0  0  0  0  0  0  0  0
    0.7146    2.0035    0.0000 C   0  0  0  0  0  0  0  0  0  0  0  0
    0.0000    2.4161    0.0000 O   0  0  0  0  0  0  0  0  0  0  0  0
    1.4290    2.4161    0.0000 C   0  0  0  0  0  0  0  0  0  0  0  0
    1.4290    0.7661    0.0000 C   0  0  0  0  0  0  0  0  0  0  0  0
    2.1435    1.1786    0.0000 C   0  0  0  0  0  0  0  0  0  0  0  0
    2.1435    2.0035    0.0000 C   0  0  0  0  0  0  0  0  0  0  0  0
    2.8580    2.4161    0.0000 O   0  0  0  0  0  0  0  0  0  0  0  0
   -2.8580    2.4161    0.0000 O   0  0  0  0  0  0  0  0  0  0  0  0
   -2.8580    0.7661    0.0000 I   0  0  0  0  0  0  0  0  0  0  0  0
   -1.4289    3.2412    0.0000 I   0  0  0  0  0  0  0  0  0  0  0  0
    1.4290    3.2412    0.0000 I   0  0  0  0  0  0  0  0  0  0  0  0
    2.8580    0.7661    0.0000 I   0  0  0  0  0  0  0  0  0  0  0  0
   -2.8579    3.3531    0.0000 H   0  0  0  0  0  0  0  0  0  0  0  0
  1  2  2  0  0  0  0
  1  6  1  0  0  0  0
  1 10  1  0  0  0  0
  2  3  1  0  0  0  0
  2 18  1  0  0  0  0
  3  4  2  0  0  0  0
  3 16  1  0  0  0  0
  4  5  1  0  0  0  0
  4 17  1  0  0  0  0
  5  6  2  0  0  0  0
  6  7  1  0  0  0  0
  7  8  2  0  0  0  0
  8 12  1  0  0  0  0
  9 10  1  0  0  0  0
  9  8  1  0  0  0  0
 11  9  2  0  0  0  0
 11 14  1  0  0  0  0
 11 19  1  0  0  0  0
 12 13  2  0  0  0  0
 13 14  1  0  0  0  0
 13 20  1  0  0  0  0
 14 15  2  0  0  0  0
 16 21  1  0  0  0  0
M  END
$$$$
C=C1C=C/C(=[NH+]/C)/C=C1
 OpenBabel07182308452D

  9  9  0  0  0  0  0  0  0  0999 V2000
    0.8218    0.9646    0.0000 C   0  0  0  0  0  0  0  0  0  0  0  0
    2.9654    2.3041    0.0000 N   0  3  0  0  0  0  0  0  0  0  0  0
    0.0985    0.5124    0.0000 C   0  0  0  0  0  0  0  0  0  0  0  0
    2.2419    1.8520    0.0000 C   0  0  0  0  0  0  0  0  0  0  0  0
    1.5553    0.5659    0.0000 C   0  0  0  0  0  0  0  0  0  0  0  0
    0.7851    1.7985    0.0000 C   0  0  0  0  0  0  0  0  0  0  0  0
    1.4816    2.2337    0.0000 C   0  0  0  0  0  0  0  0  0  0  0  0
    2.2519    1.0013    0.0000 C   0  0  0  0  0  0  0  0  0  0  0  0
    3.6907    1.9184    0.0000 C   0  0  0  0  0  0  0  0  0  0  0  0
  2  9  1  0  0  0  0
  3  1  2  0  0  0  0
  4  2  2  0  0  0  0
  5  1  1  0  0  0  0
  6  1  1  0  0  0  0
  7  4  1  0  0  0  0
  7  6  2  0  0  0  0
  8  4  1  0  0  0  0
  8  5  2  0  0  0  0
M  CHG  1   2   1
M  END
$$$$
O=C1OC2(c3c1cccc3)c1cc(C)c(cc1Oc1c2cc(C)c(c1)O)O
 OpenBabel07182308452D

 29 33  0  0  0  0  0  0  0  0999 V2000
    4.7943    0.2407    0.0000 C   0  0  0  0  0  0  0  0  0  0  0  0
    4.5396    1.0254    0.0000 C   0  0  0  0  0  0  0  0  0  0  0  0
    3.7327    1.1972    0.0000 C   0  0  0  0  0  0  0  0  0  0  0  0
    3.1805    0.5843    0.0000 C   0  0  0  0  0  0  0  0  0  0  0  0
    3.4352   -0.2004    0.0000 C   0  0  0  0  0  0  0  0  0  0  0  0
    4.2421   -0.3722    0.0000 C   0  0  0  0  0  0  0  0  0  0  0  0
    2.7676   -0.6852    0.0000 C   0  0  0  0  0  0  0  0  0  0  0  0
    2.7674   -1.5102    0.0000 O   0  0  0  0  0  0  0  0  0  0  0  0
    2.1003   -0.2000    0.0000 O   0  0  0  0  0  0  0  0  0  0  0  0
    2.3555    0.5845    0.0000 C   0  0  0  0  0  0  0  0  0  0  0  0
    2.6913    1.3381    0.0000 C   0  0  0  0  0  0  0  0  0  0  0  0
    3.5118    1.4241    0.0000 C   0  0  0  0  0  0  0  0  0  0  0  0
    3.8475    2.1777    0.0000 C   0  0  0  0  0  0  0  0  0  0  0  0
    3.3628    2.8452    0.0000 C   0  0  0  0  0  0  0  0  0  0  0  0
    2.5423    2.7592    0.0000 C   0  0  0  0  0  0  0  0  0  0  0  0
    2.2065    2.0057    0.0000 C   0  0  0  0  0  0  0  0  0  0  0  0
    1.3860    1.9197    0.0000 O   0  0  0  0  0  0  0  0  0  0  0  0
    1.0502    1.1661    0.0000 C   0  0  0  0  0  0  0  0  0  0  0  0
    1.5350    0.4985    0.0000 C   0  0  0  0  0  0  0  0  0  0  0  0
    1.1992   -0.2551    0.0000 C   0  0  0  0  0  0  0  0  0  0  0  0
    0.3787   -0.3411    0.0000 C   0  0  0  0  0  0  0  0  0  0  0  0
   -0.1060    0.3265    0.0000 C   0  0  0  0  0  0  0  0  0  0  0  0
    0.2297    1.0801    0.0000 C   0  0  0  0  0  0  0  0  0  0  0  0
   -0.9265    0.2405    0.0000 O   0  0  0  0  0  0  0  0  0  0  0  0
    0.0429   -1.0947    0.0000 C   0  0  0  0  0  0  0  0  0  0  0  0
    3.6986    3.5988    0.0000 O   0  0  0  0  0  0  0  0  0  0  0  0
    4.6680    2.2637    0.0000 C   0  0  0  0  0  0  0  0  0  0  0  0
   -1.4770    0.9987    0.0000 H   0  0  0  0  0  0  0  0  0  0  0  0
    4.6305    3.6965    0.0000 H   0  0  0  0  0  0  0  0  0  0  0  0
  1  2  2  0  0  0  0
  1  6  1  0  0  0  0
  2  3  1  0  0  0  0
  3  4  2  0  0  0  0
  4  5  1  0  0  0  0
  4 10  1  0  0  0  0
  5  6  2  0  0  0  0
  5  7  1  0  0  0  0
  7  8  2  0  0  0  0
  7  9  1  0  0  0  0
  9 10  1  0  0  0  0
 10 11  1  0  0  0  0
 10 19  1  0  0  0  0
 11 12  2  0  0  0  0
 11 16  1  0  0  0  0
 12 13  1  0  0  0  0
 13 14  2  0  0  0  0
 13 27  1  0  0  0  0
 14 15  1  0  0  0  0
 14 26  1  0  0  0  0
 15 16  2  0  0  0  0
 16 17  1  0  0  0  0
 17 18  1  0  0  0  0
 18 19  2  0  0  0  0
 18 23  1  0  0  0  0
 19 20  1  0  0  0  0
 20 21  2  0  0  0  0
 21 22  1  0  0  0  0
 21 25  1  0  0  0  0
 22 23  2  0  0  0  0
 22 24  1  0  0  0  0
 24 28  1  0  0  0  0
 26 29  1  0  0  0  0
M  END
$$$$
[S-]C
 OpenBabel07182308452D

  2  1  0  0  0  0  0  0  0  0999 V2000
   -3.2520    1.6904    0.0000 C   0  0  0  0  0  0  0  0  0  0  0  0
   -3.9665    2.1029    0.0000 S   0  5  0  0  0  0  0  0  0  0  0  0
  2  1  1  0  0  0  0
M  CHG  1   2  -1
M  END
$$$$
[Zr+4]
 OpenBabel07182308452D

  1  0  0  0  0  0  0  0  0  0999 V2000
    2.2687    0.7059    0.0000 Zr  0  0  0  0  0 15  0  0  0  0  0  0
M  CHG  1   1   4
M  END
$$$$
O=C1NC(C(=O)[N-]1)N
 OpenBabel07182308452D

 10 10  0  0  0  0  0  0  0  0999 V2000
    2.8209    0.0931    0.0000 C   0  0  3  0  0  0  0  0  0  0  0  0
    3.3088    0.7584    0.0000 C   0  0  0  0  0  0  0  0  0  0  0  0
    4.1338    0.7584    0.0000 O   0  0  0  0  0  0  0  0  0  0  0  0
    2.8209    1.4237    0.0000 N   0  5  0  0  0  0  0  0  0  0  0  0
    2.0314    1.1665    0.0000 C   0  0  0  0  0  0  0  0  0  0  0  0
    1.3659    1.6543    0.0000 O   0  0  0  0  0  0  0  0  0  0  0  0
    2.0314    0.3414    0.0000 N   0  0  0  0  0  0  0  0  0  0  0  0
    3.0781   -0.6963    0.0000 N   0  0  0  0  0  0  0  0  0  0  0  0
    1.2377   -0.2410    0.0000 H   0  0  0  0  0  0  0  0  0  0  0  0
    2.4210   -1.4294    0.0000 H   0  0  0  0  0  0  0  0  0  0  0  0
  1  2  1  0  0  0  0
  1  7  1  0  0  0  0
  1  8  1  0  0  0  0
  2  3  2  0  0  0  0
  2  4  1  0  0  0  0
  4  5  1  0  0  0  0
  5  6  2  0  0  0  0
  5  7  1  0  0  0  0
  7  9  1  0  0  0  0
  8 10  1  0  0  0  0
M  CHG  1   4  -1
M  END
$$$$
C[C@H]1CNc2c(N1C)c(=O)nc([nH]2)N
 OpenBabel07182308452D

 18 19  0  0  1  0  0  0  0  0999 V2000
   -8.5737   -7.4250    0.0000 C   0  0  0  0  0  0  0  0  0  0  0  0
   -9.2881   -7.0125    0.0000 N   0  0  0  0  0  0  0  0  0  0  0  0
   -9.2881   -6.1875    0.0000 C   0  0  1  0  0  0  0  0  0  0  0  0
   -8.5737   -5.7750    0.0000 C   0  0  0  0  0  0  0  0  0  0  0  0
  -10.0026   -5.7750    0.0000 C   0  0  0  0  0  0  0  0  0  0  0  0
  -10.7171   -6.1875    0.0000 N   0  0  0  0  0  0  0  0  0  0  0  0
  -10.7171   -7.0125    0.0000 C   0  0  0  0  0  0  0  0  0  0  0  0
  -10.0026   -7.4250    0.0000 C   0  0  0  0  0  0  0  0  0  0  0  0
  -10.0026   -8.2500    0.0000 C   0  0  0  0  0  0  0  0  0  0  0  0
   -9.2881   -8.6625    0.0000 O   0  0  0  0  0  0  0  0  0  0  0  0
  -10.7171   -8.6625    0.0000 N   0  0  0  0  0  0  0  0  0  0  0  0
  -11.4315   -8.2500    0.0000 C   0  0  0  0  0  0  0  0  0  0  0  0
  -12.1460   -8.6625    0.0000 N   0  0  0  0  0  0  0  0  0  0  0  0
  -11.4315   -7.4250    0.0000 N   0  0  0  0  0  0  0  0  0  0  0  0
  -11.5697   -5.6952    0.0000 H   0  0  0  0  0  0  0  0  0  0  0  0
  -12.9986   -8.1702    0.0000 H   0  0  0  0  0  0  0  0  0  0  0  0
  -12.1460   -9.6470    0.0000 H   0  0  0  0  0  0  0  0  0  0  0  0
  -12.2841   -6.9328    0.0000 H   0  0  0  0  0  0  0  0  0  0  0  0
  1  2  1  0  0  0  0
  2  3  1  0  0  0  0
  2  8  1  0  0  0  0
  3  4  1  6  0  0  0
  3  5  1  0  0  0  0
  5  6  1  0  0  0  0
  6  7  1  0  0  0  0
  6 15  1  0  0  0  0
  7  8  2  0  0  0  0
  7 14  1  0  0  0  0
  8  9  1  0  0  0  0
  9 10  2  0  0  0  0
  9 11  1  0  0  0  0
 11 12  2  0  0  0  0
 12 13  1  0  0  0  0
 12 14  1  0  0  0  0
 13 16  1  0  0  0  0
 13 17  1  0  0  0  0
 14 18  1  0  0  0  0
M  END
$$$$
C=C1CC[C@H]2[C@H](C2(C)C)/C=C(/C(=O)[C@@]2([C@@H]([C@H]1O)[C@@H](O)[C@H](C2)C)O)\C
 OpenBabel07182308452D

 24 26  0  0  1  0  0  0  0  0999 V2000
    7.8103    1.2375    0.0000 C   0  0  0  0  0  0  0  0  0  0  0  0
    6.9853    1.2375    0.0000 C   0  0  1  0  0  0  0  0  0  0  0  0
    6.5004    1.9049    0.0000 C   0  0  0  0  0  0  0  0  0  0  0  0
    5.7158    1.6500    0.0000 C   0  0  1  0  0  0  0  0  0  0  0  0
    5.7158    0.8250    0.0000 C   0  0  2  0  0  0  0  0  0  0  0  0
    6.5004    0.5701    0.0000 C   0  0  1  0  0  0  0  0  0  0  0  0
    6.7553   -0.2146    0.0000 O   0  0  0  0  0  0  0  0  0  0  0  0
    4.9543    0.3401    0.0000 C   0  0  2  0  0  0  0  0  0  0  0  0
    4.6993   -0.4445    0.0000 C   0  0  0  0  0  0  0  0  0  0  0  0
    5.1843   -1.1120    0.0000 C   0  0  0  0  0  0  0  0  0  0  0  0
    3.8743   -0.4445    0.0000 C   0  0  0  0  0  0  0  0  0  0  0  0
    3.6194    0.3401    0.0000 C   0  0  0  0  0  0  0  0  0  0  0  0
    2.8579    0.8250    0.0000 C   0  0  1  0  0  0  0  0  0  0  0  0
    2.8579    1.6500    0.0000 C   0  0  2  0  0  0  0  0  0  0  0  0
    2.1434    1.2375    0.0000 C   0  0  0  0  0  0  0  0  0  0  0  0
    1.4676    1.7107    0.0000 C   0  0  0  0  0  0  0  0  0  0  0  0
    1.4676    0.7643    0.0000 C   0  0  0  0  0  0  0  0  0  0  0  0
    3.5724    2.0625    0.0000 C   0  0  0  0  0  0  0  0  0  0  0  0
    4.2868    1.6500    0.0000 C   0  0  0  0  0  0  0  0  0  0  0  0
    5.0013    2.0625    0.0000 C   0  0  0  0  0  0  0  0  0  0  0  0
    5.0013    2.8875    0.0000 O   0  0  0  0  0  0  0  0  0  0  0  0
    4.2868    0.8250    0.0000 C   0  0  0  0  0  0  0  0  0  0  0  0
    5.6065   -0.1651    0.0000 O   0  0  0  0  0  0  0  0  0  0  0  0
    5.8020    2.4705    0.0000 O   0  0  0  0  0  0  0  0  0  0  0  0
  2  1  1  6  0  0  0
  2  3  1  0  0  0  0
  2  6  1  0  0  0  0
  3  4  1  0  0  0  0
  4 20  1  0  0  0  0
  4 24  1  6  0  0  0
  5  4  1  6  0  0  0
  5  6  1  0  0  0  0
  5  8  1  0  0  0  0
  6  7  1  6  0  0  0
  8  9  1  0  0  0  0
  8 23  1  6  0  0  0
  9 10  2  0  0  0  0
  9 11  1  0  0  0  0
 11 12  1  0  0  0  0
 13 12  1  6  0  0  0
 13 14  1  0  0  0  0
 13 15  1  0  0  0  0
 14 15  1  0  0  0  0
 14 18  1  6  0  0  0
 15 16  1  0  0  0  0
 15 17  1  0  0  0  0
 18 19  2  0  0  0  0
 19 20  1  0  0  0  0
 19 22  1  0  0  0  0
 20 21  2  0  0  0  0
M  END
$$$$
c1ccc2c(c1)n[nH]n2
 OpenBabel07182308452D

  9 10  0  0  0  0  0  0  0  0999 V2000
   -2.8578    0.5904    0.0000 N   0  0  0  0  0  0  0  0  0  0  0  0
   -2.9441    1.4109    0.0000 N   0  0  0  0  0  0  0  0  0  0  0  0
   -3.7510    1.5824    0.0000 C   0  0  0  0  0  0  0  0  0  0  0  0
   -4.1635    0.8680    0.0000 C   0  0  0  0  0  0  0  0  0  0  0  0
   -3.6116    0.2549    0.0000 N   0  0  0  0  0  0  0  0  0  0  0  0
   -4.1635    2.2969    0.0000 C   0  0  0  0  0  0  0  0  0  0  0  0
   -4.9885    2.2970    0.0000 C   0  0  0  0  0  0  0  0  0  0  0  0
   -5.4011    1.5825    0.0000 C   0  0  0  0  0  0  0  0  0  0  0  0
   -4.9885    0.8680    0.0000 C   0  0  0  0  0  0  0  0  0  0  0  0
  1  2  1  0  0  0  0
  1  5  1  0  0  0  0
  2  3  2  0  0  0  0
  3  6  1  0  0  0  0
  4  5  2  0  0  0  0
  4  3  1  0  0  0  0
  6  7  2  0  0  0  0
  7  8  1  0  0  0  0
  8  9  2  0  0  0  0
  9  4  1  0  0  0  0
M  END
$$$$
O[C@@H]1CO[C@H]([C@@H]([C@H]1O)O)O
 OpenBabel07182308452D

 13 13  0  0  0  0  0  0  0  0999 V2000
   -1.4187   -1.0327    0.0000 C   0  0  2  0  0  0  0  0  0  0  0  0
   -2.1393   -0.6134    0.0000 O   0  0  0  0  0  0  0  0  0  0  0  0
   -1.4187   -1.8596    0.0000 C   0  0  1  0  0  0  0  0  0  0  0  0
   -2.8594   -1.0327    0.0000 C   0  0  0  0  0  0  0  0  0  0  0  0
   -2.1393   -2.2753    0.0000 C   0  0  2  0  0  0  0  0  0  0  0  0
   -0.6987   -2.2719    0.0000 O   0  0  0  0  0  0  0  0  0  0  0  0
   -2.8594   -1.8596    0.0000 C   0  0  2  0  0  0  0  0  0  0  0  0
   -2.1359   -3.1027    0.0000 O   0  0  0  0  0  0  0  0  0  0  0  0
   -3.5761   -2.2753    0.0000 O   0  0  0  0  0  0  0  0  0  0  0  0
   -0.7004   -0.6155    0.0000 O   0  0  0  0  0  0  0  0  0  0  0  0
   -0.6953   -3.2419    0.0000 H   0  0  0  0  0  0  0  0  0  0  0  0
   -2.9739   -3.5911    0.0000 H   0  0  0  0  0  0  0  0  0  0  0  0
   -4.4171   -1.7920    0.0000 H   0  0  0  0  0  0  0  0  0  0  0  0
  1 10  1  1  0  0  0
  1  2  1  0  0  0  0
  1  3  1  0  0  0  0
  2  4  1  0  0  0  0
  3  5  1  0  0  0  0
  3  6  1  6  0  0  0
  4  7  1  0  0  0  0
  5  8  1  1  0  0  0
  5  7  1  0  0  0  0
  6 11  1  0  0  0  0
  7  9  1  6  0  0  0
  8 12  1  0  0  0  0
  9 13  1  0  0  0  0
M  END
$$$$
N[C@@H]1O[C@@]2(N(C1=O)CC(=O)N1[C@H]2CCC1)O
 OpenBabel07182308452D

 19 21  0  0  0  0  0  0  0  0999 V2000
    1.5366    1.8710    0.0000 O   0  0  0  0  0  0  0  0  0  0  0  0
    2.1936    2.0821    0.0000 O   0  0  0  0  0  0  0  0  0  0  0  0
    0.1524    0.1936    0.0000 O   0  0  0  0  0  0  0  0  0  0  0  0
    4.2228    0.4046    0.0000 O   0  0  0  0  0  0  0  0  0  0  0  0
    2.1936    0.6980    0.0000 N   0  0  0  0  0  0  0  0  0  0  0  0
    3.5894    1.4721    0.0000 N   0  0  0  0  0  0  0  0  0  0  0  0
   -0.4106    1.9882    0.0000 N   0  0  0  0  0  0  0  0  0  0  0  0
    2.1936    1.4721    0.0000 C   0  0  2  0  0  0  0  0  0  0  0  0
    2.9091    1.8710    0.0000 C   0  0  2  0  0  0  0  0  0  0  0  0
    0.8445    1.4721    0.0000 C   0  0  1  0  0  0  0  0  0  0  0  0
    0.8445    0.6980    0.0000 C   0  0  0  0  0  0  0  0  0  0  0  0
    2.8973    0.2991    0.0000 C   0  0  0  0  0  0  0  0  0  0  0  0
    3.5894    0.6862    0.0000 C   0  0  0  0  0  0  0  0  0  0  0  0
    2.9091    2.6099    0.0000 C   0  0  0  0  0  0  0  0  0  0  0  0
    4.2346    1.8475    0.0000 C   0  0  0  0  0  0  0  0  0  0  0  0
    4.2346    2.5983    0.0000 C   0  0  0  0  0  0  0  0  0  0  0  0
    2.8973    1.1438    0.0000 H   0  0  0  0  0  0  0  0  0  0  0  0
    3.0336    2.5671    0.0000 H   0  0  0  0  0  0  0  0  0  0  0  0
   -0.4244    2.9726    0.0000 H   0  0  0  0  0  0  0  0  0  0  0  0
  1  8  1  0  0  0  0
  1 10  1  0  0  0  0
  2 18  1  0  0  0  0
  3 11  2  0  0  0  0
  4 13  2  0  0  0  0
  5  8  1  0  0  0  0
  5 11  1  0  0  0  0
  5 12  1  0  0  0  0
  6  9  1  0  0  0  0
  6 13  1  0  0  0  0
  6 15  1  0  0  0  0
  7 19  1  0  0  0  0
  8  2  1  0  0  0  0
  8  9  1  1  0  0  0
  9 14  1  0  0  0  0
  9 17  1  1  0  0  0
 10  7  1  6  0  0  0
 10 11  1  0  0  0  0
 12 13  1  0  0  0  0
 14 16  1  0  0  0  0
 15 16  1  0  0  0  0
M  END
$$$$
O=C1CO[C@@]2(N1[C@@H](C)C(=O)N1[C@H]2CCC1)O
 OpenBabel07182308452D

 18 20  0  0  0  0  0  0  0  0999 V2000
   -0.7616    0.4221    0.0000 C   0  0  0  0  0  0  0  0  0  0  0  0
   -1.2572    1.0885    0.0000 C   0  0  0  0  0  0  0  0  0  0  0  0
   -1.2446   -0.2497    0.0000 O   0  0  0  0  0  0  0  0  0  0  0  0
   -2.0336   -0.0016    0.0000 C   0  0  2  0  0  0  0  0  0  0  0  0
   -2.0372    0.8212    0.0000 N   0  0  0  0  0  0  0  0  0  0  0  0
   -2.7473    1.2271    0.0000 C   0  0  2  0  0  0  0  0  0  0  0  0
   -3.4589    0.8150    0.0000 C   0  0  0  0  0  0  0  0  0  0  0  0
   -2.7403   -0.4183    0.0000 C   0  0  1  0  0  0  0  0  0  0  0  0
   -3.4569   -0.0094    0.0000 N   0  0  0  0  0  0  0  0  0  0  0  0
   -4.0671   -0.5645    0.0000 C   0  0  0  0  0  0  0  0  0  0  0  0
   -3.7277   -1.3163    0.0000 C   0  0  0  0  0  0  0  0  0  0  0  0
   -2.9079   -1.2259    0.0000 C   0  0  0  0  0  0  0  0  0  0  0  0
   -2.0288   -0.8325    0.0000 O   0  0  0  0  0  0  0  0  0  0  0  0
   -2.7514    0.4051    0.0000 H   0  0  0  0  0  0  0  0  0  0  0  0
   -1.0121    1.8786    0.0000 O   0  0  0  0  0  0  0  0  0  0  0  0
   -4.1759    1.2273    0.0000 O   0  0  0  0  0  0  0  0  0  0  0  0
   -2.7496    2.0544    0.0000 C   0  0  0  0  0  0  0  0  0  0  0  0
   -2.8660   -1.3223    0.0000 H   0  0  0  0  0  0  0  0  0  0  0  0
  1  2  1  0  0  0  0
  2  5  1  0  0  0  0
  2 15  2  0  0  0  0
  3  1  1  0  0  0  0
  4  3  1  0  0  0  0
  4  5  1  0  0  0  0
  4  8  1  1  0  0  0
  4 13  1  0  0  0  0
  5  6  1  0  0  0  0
  6  7  1  0  0  0  0
  6 17  1  6  0  0  0
  7  9  1  0  0  0  0
  7 16  2  0  0  0  0
  8  9  1  0  0  0  0
  8 14  1  1  0  0  0
  9 10  1  0  0  0  0
 10 11  1  0  0  0  0
 11 12  1  0  0  0  0
 12  8  1  0  0  0  0
 13 18  1  0  0  0  0
M  END
$$$$
OB(O)O
 OpenBabel07182308452D

  7  6  0  0  0  0  0  0  0  0999 V2000
    0.0409    0.6186    0.0000 O   0  0  0  0  0  0  0  0  0  0  0  0
    0.7015   -0.6186    0.0000 O   0  0  0  0  0  0  0  0  0  0  0  0
    0.0409   -0.2064    0.0000 B   0  0  0  0  0  0  0  0  0  0  0  0
   -0.7015   -0.6186    0.0000 O   0  0  0  0  0  0  0  0  0  0  0  0
    0.8809    1.1036    0.0000 H   0  0  0  0  0  0  0  0  0  0  0  0
    0.6683   -1.5880    0.0000 H   0  0  0  0  0  0  0  0  0  0  0  0
   -1.5333   -0.1196    0.0000 H   0  0  0  0  0  0  0  0  0  0  0  0
  1  3  1  0  0  0  0
  1  5  1  0  0  0  0
  2  3  1  0  0  0  0
  2  6  1  0  0  0  0
  3  4  1  0  0  0  0
  4  7  1  0  0  0  0
M  END
$$$$
[O-][n+]1ccccc1
 OpenBabel07182308452D

  7  7  0  0  0  0  0  0  0  0999 V2000
   -1.0699    0.2066    0.0000 C   0  0  0  0  0  0  0  0  0  0  0  0
   -1.0699    1.0309    0.0000 N   0  3  0  0  0  0  0  0  0  0  0  0
   -1.7839   -0.2067    0.0000 C   0  0  0  0  0  0  0  0  0  0  0  0
   -0.3560    1.4422    0.0000 O   0  5  0  0  0  0  0  0  0  0  0  0
   -1.7839    1.4422    0.0000 C   0  0  0  0  0  0  0  0  0  0  0  0
   -2.4999    0.2066    0.0000 C   0  0  0  0  0  0  0  0  0  0  0  0
   -2.4999    1.0309    0.0000 C   0  0  0  0  0  0  0  0  0  0  0  0
  1  2  1  0  0  0  0
  1  3  2  0  0  0  0
  2  4  1  0  0  0  0
  2  5  2  0  0  0  0
  3  6  1  0  0  0  0
  5  7  1  0  0  0  0
  6  7  2  0  0  0  0
M  CHG  2   2   1   4  -1
M  END
$$$$
Cc1c(O)ccc(c1C)O
 OpenBabel07182308452D

 12 12  0  0  0  0  0  0  0  0999 V2000
   27.2205  -14.6647    0.0000 C   0  0  0  0  0  0  0  0  0  0  0  0
   27.6326  -13.9500    0.0000 C   0  0  0  0  0  0  0  0  0  0  0  0
   28.4576  -13.9500    0.0000 O   0  0  0  0  0  0  0  0  0  0  0  0
   27.2205  -13.2353    0.0000 C   0  0  0  0  0  0  0  0  0  0  0  0
   27.6326  -12.5206    0.0000 C   0  0  0  0  0  0  0  0  0  0  0  0
   26.3948  -13.2353    0.0000 C   0  0  0  0  0  0  0  0  0  0  0  0
   25.9827  -12.5206    0.0000 C   0  0  0  0  0  0  0  0  0  0  0  0
   25.9827  -13.9500    0.0000 C   0  0  0  0  0  0  0  0  0  0  0  0
   25.1577  -13.9500    0.0000 O   0  0  0  0  0  0  0  0  0  0  0  0
   26.3948  -14.6647    0.0000 C   0  0  0  0  0  0  0  0  0  0  0  0
   28.9261  -14.7615    0.0000 H   0  0  0  0  0  0  0  0  0  0  0  0
   24.6892  -13.1385    0.0000 H   0  0  0  0  0  0  0  0  0  0  0  0
  1  2  1  0  0  0  0
  1 10  2  0  0  0  0
  2  3  1  0  0  0  0
  2  4  2  0  0  0  0
  3 11  1  0  0  0  0
  4  5  1  0  0  0  0
  4  6  1  0  0  0  0
  6  7  1  0  0  0  0
  6  8  2  0  0  0  0
  8  9  1  0  0  0  0
  8 10  1  0  0  0  0
  9 12  1  0  0  0  0
M  END
$$$$
O[SiH3]
 OpenBabel07182308452D

  3  2  0  0  0  0  0  0  0  0999 V2000
    0.8250    0.0000    0.0000 O   0  0  0  0  0  0  0  0  0  0  0  0
    0.0000    0.0000    0.0000 Si  0  0  0  0  0  0  0  0  0  0  0  0
    1.3100   -0.8400    0.0000 H   0  0  0  0  0  0  0  0  0  0  0  0
  1  2  1  0  0  0  0
  1  3  1  0  0  0  0
M  END
$$$$
[Rb]
 OpenBabel07182308452D

  1  0  0  0  0  0  0  0  0  0999 V2000
    0.0000    0.0000    0.0000 Rb  0  0  0  0  0 15  0  0  0  0  0  0
M  END
$$$$
[O-]P(=O)([O-])[O-]
 OpenBabel07182308452D

  5  4  0  0  0  0  0  0  0  0999 V2000
    0.8176    0.2339    0.0000 O   0  5  0  0  0  0  0  0  0  0  0  0
   -0.3094    0.5359    0.0000 O   0  5  0  0  0  0  0  0  0  0  0  0
   -0.6113   -0.5911    0.0000 O   0  5  0  0  0  0  0  0  0  0  0  0
    0.5156   -0.8931    0.0000 O   0  0  0  0  0  0  0  0  0  0  0  0
    0.1031   -0.1786    0.0000 P   0  0  0  0  0  0  0  0  0  0  0  0
  5  1  1  0  0  0  0
  5  2  1  0  0  0  0
  5  3  1  0  0  0  0
  5  4  2  0  0  0  0
M  CHG  3   1  -1   2  -1   3  -1
M  END
$$$$
Nc1cnccn1
 OpenBabel07182308452D

  7  7  0  0  0  0  0  0  0  0999 V2000
   -3.5216    0.4105    0.0000 C   0  0  0  0  0  0  0  0  0  0  0  0
   -3.5216   -0.4144    0.0000 C   0  0  0  0  0  0  0  0  0  0  0  0
   -2.8071   -0.8270    0.0000 N   0  0  0  0  0  0  0  0  0  0  0  0
   -2.0926   -0.4144    0.0000 C   0  0  0  0  0  0  0  0  0  0  0  0
   -2.0926    0.4105    0.0000 C   0  0  0  0  0  0  0  0  0  0  0  0
   -2.8071    0.8231    0.0000 N   0  0  0  0  0  0  0  0  0  0  0  0
   -1.3670    0.8296    0.0000 N   0  0  0  0  0  0  0  0  0  0  0  0
  1  2  2  0  0  0  0
  1  6  1  0  0  0  0
  2  3  1  0  0  0  0
  3  4  2  0  0  0  0
  4  5  1  0  0  0  0
  5  6  2  0  0  0  0
  5  7  1  0  0  0  0
M  END
$$$$
N#Cc1ccc2c(c1)[nH]c1c2C(=O)c2c(C1(C)C)cccc2
 OpenBabel07182308452D

 23 26  0  0  0  0  0  0  0  0999 V2000
   -1.2976    0.4235    0.0000 C   0  0  0  0  0  0  0  0  0  0  0  0
   -0.5834    0.0112    0.0000 C   0  0  0  0  0  0  0  0  0  0  0  0
    0.1309    0.4239    0.0000 C   0  0  0  0  0  0  0  0  0  0  0  0
    0.1308    1.2489    0.0000 C   0  0  0  0  0  0  0  0  0  0  0  0
   -0.5833    1.6611    0.0000 C   0  0  0  0  0  0  0  0  0  0  0  0
   -1.2977    1.2485    0.0000 C   0  0  0  0  0  0  0  0  0  0  0  0
    0.8454    0.0115    0.0000 C   0  0  0  0  0  0  0  0  0  0  0  0
    1.5598    0.4240    0.0000 C   0  0  0  0  0  0  0  0  0  0  0  0
    1.5597    1.2490    0.0000 C   0  0  0  0  0  0  0  0  0  0  0  0
    0.8452    1.6615    0.0000 C   0  0  0  0  0  0  0  0  0  0  0  0
    2.3445    0.1692    0.0000 N   0  0  0  0  0  0  0  0  0  0  0  0
    2.8293    0.8367    0.0000 C   0  0  0  0  0  0  0  0  0  0  0  0
    2.3442    1.5041    0.0000 C   0  0  0  0  0  0  0  0  0  0  0  0
    3.6498    0.9230    0.0000 C   0  0  0  0  0  0  0  0  0  0  0  0
    3.9852    1.6768    0.0000 C   0  0  0  0  0  0  0  0  0  0  0  0
    3.5002    2.3442    0.0000 C   0  0  0  0  0  0  0  0  0  0  0  0
    2.6797    2.2578    0.0000 C   0  0  0  0  0  0  0  0  0  0  0  0
    4.7974    1.7624    0.0000 C   0  0  0  0  0  0  0  0  0  0  0  0
    5.5944    1.8521    0.0000 N   0  0  0  0  0  0  0  0  0  0  0  0
    0.8450    2.4750    0.0000 O   0  0  0  0  0  0  0  0  0  0  0  0
    1.2449   -0.7191    0.0000 C   0  0  0  0  0  0  0  0  0  0  0  0
    0.4092   -0.7032    0.0000 C   0  0  0  0  0  0  0  0  0  0  0  0
    2.6489   -0.7671    0.0000 H   0  0  0  0  0  0  0  0  0  0  0  0
  1  2  2  0  0  0  0
  1  6  1  0  0  0  0
  2  3  1  0  0  0  0
  3  4  2  0  0  0  0
  3  7  1  0  0  0  0
  4  5  1  0  0  0  0
  4 10  1  0  0  0  0
  5  6  2  0  0  0  0
  7  8  1  0  0  0  0
  7 21  1  0  0  0  0
  7 22  1  0  0  0  0
  8  9  2  0  0  0  0
  8 11  1  0  0  0  0
  9 10  1  0  0  0  0
  9 13  1  0  0  0  0
 10 20  2  0  0  0  0
 11 12  1  0  0  0  0
 11 23  1  0  0  0  0
 12 13  1  0  0  0  0
 12 14  2  0  0  0  0
 13 17  2  0  0  0  0
 14 15  1  0  0  0  0
 15 16  2  0  0  0  0
 15 18  1  0  0  0  0
 16 17  1  0  0  0  0
 18 19  3  0  0  0  0
M  END
$$$$
C[C@H]1/C=C/C=C/2\CO[C@H]3[C@]2(O)[C@@H](C=C([C@H]3O)C)C(=O)O[C@H]2C[C@@H](C/C=C(/C1)\C)O[C@@]1(C2)OC[C@H](C(=N)C1)C
 OpenBabel07182308452D

 44 48  0  0  0  0  0  0  0  0999 V2000
   -2.5094   -3.5102    0.0000 O   0  0  0  0  0  0  0  0  0  0  0  0
   -1.1526   -1.8973    0.0000 O   0  0  0  0  0  0  0  0  0  0  0  0
    0.3652   -1.0340    0.0000 O   0  0  0  0  0  0  0  0  0  0  0  0
   -0.3463   -4.7435    0.0000 O   0  0  0  0  0  0  0  0  0  0  0  0
   -1.0577   -1.0245    0.0000 O   0  0  0  0  0  0  0  0  0  0  0  0
    0.3652    1.4325    0.0000 O   0  0  0  0  0  0  0  0  0  0  0  0
    1.0672    1.8499    0.0000 O   0  0  0  0  0  0  0  0  0  0  0  0
    3.2113    0.6166    0.0000 N   0  0  0  0  0  0  0  0  0  0  0  0
   -1.0672   -2.6847    0.0000 C   0  0  1  0  0  0  0  0  0  0  0  0
   -1.0672   -3.5102    0.0000 C   0  0  1  0  0  0  0  0  0  0  0  0
   -0.3463   -2.2674    0.0000 C   0  0  2  0  0  0  0  0  0  0  0  0
   -1.7788   -2.2674    0.0000 C   0  0  0  0  0  0  0  0  0  0  0  0
   -0.3463   -3.9277    0.0000 C   0  0  1  0  0  0  0  0  0  0  0  0
   -0.3463   -1.4420    0.0000 C   0  0  0  0  0  0  0  0  0  0  0  0
    0.3652   -2.6753    0.0000 C   0  0  0  0  0  0  0  0  0  0  0  0
    0.3652   -3.5197    0.0000 C   0  0  0  0  0  0  0  0  0  0  0  0
   -2.5094   -2.6847    0.0000 C   0  0  0  0  0  0  0  0  0  0  0  0
    0.3652   -0.2087    0.0000 C   0  0  2  0  0  0  0  0  0  0  0  0
   -1.7788   -1.4420    0.0000 C   0  0  0  0  0  0  0  0  0  0  0  0
    1.0672    1.0340    0.0000 C   0  0  2  0  0  0  0  0  0  0  0  0
    1.0672    0.1992    0.0000 C   0  0  0  0  0  0  0  0  0  0  0  0
   -0.3463    1.0245    0.0000 C   0  0  1  0  0  0  0  0  0  0  0  0
   -0.3463    0.1992    0.0000 C   0  0  0  0  0  0  0  0  0  0  0  0
    1.0672   -3.9182    0.0000 C   0  0  0  0  0  0  0  0  0  0  0  0
    1.7788    0.6166    0.0000 C   0  0  0  0  0  0  0  0  0  0  0  0
   -2.4998   -1.0340    0.0000 C   0  0  0  0  0  0  0  0  0  0  0  0
    1.7788    2.2674    0.0000 C   0  0  0  0  0  0  0  0  0  0  0  0
    2.4903    1.0340    0.0000 C   0  0  0  0  0  0  0  0  0  0  0  0
    2.4903    1.8499    0.0000 C   0  0  2  0  0  0  0  0  0  0  0  0
   -1.0672    1.4420    0.0000 C   0  0  0  0  0  0  0  0  0  0  0  0
   -2.4998   -0.2087    0.0000 C   0  0  0  0  0  0  0  0  0  0  0  0
   -1.7788    1.0245    0.0000 C   0  0  0  0  0  0  0  0  0  0  0  0
    3.2113    2.2674    0.0000 C   0  0  0  0  0  0  0  0  0  0  0  0
   -3.2113    0.2087    0.0000 C   0  0  1  0  0  0  0  0  0  0  0  0
   -2.4998    1.4420    0.0000 C   0  0  0  0  0  0  0  0  0  0  0  0
   -3.2113    1.0245    0.0000 C   0  0  0  0  0  0  0  0  0  0  0  0
   -3.9134   -0.1992    0.0000 C   0  0  0  0  0  0  0  0  0  0  0  0
   -2.4998    2.2674    0.0000 C   0  0  0  0  0  0  0  0  0  0  0  0
   -1.0672   -4.3356    0.0000 H   0  0  0  0  0  0  0  0  0  0  0  0
   -0.3463   -3.0832    0.0000 H   0  0  0  0  0  0  0  0  0  0  0  0
    0.3652    0.6166    0.0000 H   0  0  0  0  0  0  0  0  0  0  0  0
   -0.3463    1.8499    0.0000 H   0  0  0  0  0  0  0  0  0  0  0  0
   -0.3697   -1.3245    0.0000 H   0  0  0  0  0  0  0  0  0  0  0  0
   -1.1863   -5.2285    0.0000 H   0  0  0  0  0  0  0  0  0  0  0  0
  1 10  1  0  0  0  0
  1 17  1  0  0  0  0
  2 43  1  0  0  0  0
  3 14  1  0  0  0  0
  3 18  1  0  0  0  0
  4 44  1  0  0  0  0
  5 14  2  0  0  0  0
  6 22  1  0  0  0  0
  7 20  1  0  0  0  0
  7 27  1  0  0  0  0
  8 28  2  0  0  0  0
  9  2  1  0  0  0  0
  9 10  1  6  0  0  0
  9 12  1  0  0  0  0
 10 39  1  6  0  0  0
 11  9  1  6  0  0  0
 11 14  1  0  0  0  0
 11 15  1  0  0  0  0
 11 40  1  0  0  0  0
 12 17  1  0  0  0  0
 12 19  2  0  0  0  0
 13  4  1  0  0  0  0
 13 10  1  1  0  0  0
 13 16  1  0  0  0  0
 15 16  2  0  0  0  0
 16 24  1  0  0  0  0
 18 21  1  0  0  0  0
 18 23  1  0  0  0  0
 18 41  1  6  0  0  0
 19 26  1  0  0  0  0
 20  6  1  0  0  0  0
 20 21  1  6  0  0  0
 20 25  1  0  0  0  0
 22 23  1  0  0  0  0
 22 30  1  0  0  0  0
 22 42  1  6  0  0  0
 25 28  1  0  0  0  0
 26 31  2  0  0  0  0
 27 29  1  0  0  0  0
 28 29  1  0  0  0  0
 29 33  1  1  0  0  0
 30 32  1  0  0  0  0
 31 34  1  0  0  0  0
 32 35  2  0  0  0  0
 34 36  1  0  0  0  0
 34 37  1  6  0  0  0
 35 36  1  0  0  0  0
 35 38  1  0  0  0  0
M  END
$$$$
S=c1sc2c([nH]1)cccc2
 OpenBabel07182308452D

 11 12  0  0  0  0  0  0  0  0999 V2000
   -1.3741    1.8023    0.0000 S   0  0  0  0  0  0  0  0  0  0  0  0
   -1.6097    1.0117    0.0000 C   0  0  0  0  0  0  0  0  0  0  0  0
   -1.1086    0.3563    0.0000 N   0  0  0  0  0  0  0  0  0  0  0  0
   -1.5770   -0.3228    0.0000 C   0  0  0  0  0  0  0  0  0  0  0  0
   -1.3857   -1.1253    0.0000 C   0  0  0  0  0  0  0  0  0  0  0  0
   -1.9851   -1.6922    0.0000 C   0  0  0  0  0  0  0  0  0  0  0  0
   -2.7758   -1.4566    0.0000 C   0  0  0  0  0  0  0  0  0  0  0  0
   -2.9670   -0.6541    0.0000 C   0  0  0  0  0  0  0  0  0  0  0  0
   -2.3676   -0.0872    0.0000 C   0  0  0  0  0  0  0  0  0  0  0  0
   -2.3879    0.7376    0.0000 S   0  0  0  0  0  0  0  0  0  0  0  0
   -0.1244    0.3804    0.0000 H   0  0  0  0  0  0  0  0  0  0  0  0
  1  2  2  0  0  0  0
  2  3  1  0  0  0  0
  2 10  1  0  0  0  0
  3  4  1  0  0  0  0
  3 11  1  0  0  0  0
  4  5  1  0  0  0  0
  4  9  2  0  0  0  0
  5  6  2  0  0  0  0
  6  7  1  0  0  0  0
  7  8  2  0  0  0  0
  8  9  1  0  0  0  0
  9 10  1  0  0  0  0
M  END
$$$$
Sc1nnc([nH]1)Br
 OpenBabel07182308452D

  7  7  0  0  0  0  0  0  0  0999 V2000
   -1.0088    1.3885    0.0000 N   0  0  0  0  0  0  0  0  0  0  0  0
   -0.3487    1.8836    0.0000 C   0  0  0  0  0  0  0  0  0  0  0  0
   -0.5963    2.6261    0.0000 N   0  0  0  0  0  0  0  0  0  0  0  0
   -1.4214    2.6261    0.0000 N   0  0  0  0  0  0  0  0  0  0  0  0
   -1.6689    1.8836    0.0000 C   0  0  0  0  0  0  0  0  0  0  0  0
    0.3524    1.4711    0.0000 S   0  0  0  0  0  0  0  0  0  0  0  0
   -2.4564    1.6377    0.0000 Br  0  0  0  0  0  0  0  0  0  0  0  0
  1  2  1  0  0  0  0
  1  5  1  0  0  0  0
  2  3  2  0  0  0  0
  2  6  1  0  0  0  0
  3  4  1  0  0  0  0
  4  5  2  0  0  0  0
  5  7  1  0  0  0  0
M  END
$$$$
c1ccc2c(c1)OCn1c2cc2c1cccc2
 OpenBabel07182308452D

 17 20  0  0  0  0  0  0  0  0999 V2000
   -2.3544    0.5462    0.0000 C   0  0  0  0  0  0  0  0  0  0  0  0
   -2.4413    1.3724    0.0000 C   0  0  0  0  0  0  0  0  0  0  0  0
   -1.7719    1.8526    0.0000 C   0  0  0  0  0  0  0  0  0  0  0  0
   -1.0223    1.5155    0.0000 C   0  0  0  0  0  0  0  0  0  0  0  0
   -0.9361    0.6946    0.0000 C   0  0  0  0  0  0  0  0  0  0  0  0
   -1.6024    0.2130    0.0000 C   0  0  0  0  0  0  0  0  0  0  0  0
   -0.1272    0.5253    0.0000 N   0  0  0  0  0  0  0  0  0  0  0  0
    0.2835    1.2401    0.0000 C   0  0  0  0  0  0  0  0  0  0  0  0
   -0.2665    1.8493    0.0000 C   0  0  0  0  0  0  0  0  0  0  0  0
    1.1105    1.2401    0.0000 C   0  0  0  0  0  0  0  0  0  0  0  0
    1.5246    1.9513    0.0000 C   0  0  0  0  0  0  0  0  0  0  0  0
    2.3474    1.9512    0.0000 C   0  0  0  0  0  0  0  0  0  0  0  0
    2.7629    1.2440    0.0000 C   0  0  0  0  0  0  0  0  0  0  0  0
    2.3503    0.5249    0.0000 C   0  0  0  0  0  0  0  0  0  0  0  0
    1.5223    0.5249    0.0000 C   0  0  0  0  0  0  0  0  0  0  0  0
    1.1114   -0.1897    0.0000 O   0  0  0  0  0  0  0  0  0  0  0  0
    0.2843   -0.1897    0.0000 C   0  0  0  0  0  0  0  0  0  0  0  0
  1  2  1  0  0  0  0
  2  3  2  0  0  0  0
  3  4  1  0  0  0  0
  4  5  2  0  0  0  0
  4  9  1  0  0  0  0
  5  6  1  0  0  0  0
  5  7  1  0  0  0  0
  6  1  2  0  0  0  0
  7 17  1  0  0  0  0
  8  7  1  0  0  0  0
  8 10  1  0  0  0  0
  9  8  2  0  0  0  0
 10 11  1  0  0  0  0
 12 11  2  0  0  0  0
 13 12  1  0  0  0  0
 14 13  2  0  0  0  0
 15 14  1  0  0  0  0
 15 10  2  0  0  0  0
 16 15  1  0  0  0  0
 17 16  1  0  0  0  0
M  END
$$$$
O=C1NCC(=O)N2CC[C@H](C2)Oc2nc3ccccc3nc2CCCCC[C@H]2[C@H](O1)C2
 OpenBabel07182308452D

 32 36  0  0  0  0  0  0  0  0999 V2000
   -4.5413    2.5191    0.0000 C   0  0  1  0  0  0  0  0  0  0  0  0
   -3.6341    2.8902    0.0000 C   0  0  0  0  0  0  0  0  0  0  0  0
   -2.9198    2.4776    0.0000 C   0  0  0  0  0  0  0  0  0  0  0  0
   -2.2053    2.8902    0.0000 C   0  0  0  0  0  0  0  0  0  0  0  0
   -1.4910    2.4776    0.0000 C   0  0  0  0  0  0  0  0  0  0  0  0
   -0.7767    2.8902    0.0000 C   0  0  0  0  0  0  0  0  0  0  0  0
   -0.0625    2.4776    0.0000 C   0  0  0  0  0  0  0  0  0  0  0  0
   -0.0625    1.6531    0.0000 C   0  0  0  0  0  0  0  0  0  0  0  0
    0.6519    1.2407    0.0000 N   0  0  0  0  0  0  0  0  0  0  0  0
    1.3662    1.6531    0.0000 C   0  0  0  0  0  0  0  0  0  0  0  0
    1.3662    2.4777    0.0000 C   0  0  0  0  0  0  0  0  0  0  0  0
    0.6519    2.8902    0.0000 N   0  0  0  0  0  0  0  0  0  0  0  0
    2.0805    1.2408    0.0000 C   0  0  0  0  0  0  0  0  0  0  0  0
    2.7950    1.6532    0.0000 C   0  0  0  0  0  0  0  0  0  0  0  0
    2.7949    2.4777    0.0000 C   0  0  0  0  0  0  0  0  0  0  0  0
    2.0805    2.8903    0.0000 C   0  0  0  0  0  0  0  0  0  0  0  0
   -4.5413    1.6941    0.0000 C   0  0  1  0  0  0  0  0  0  0  0  0
   -5.2558    2.1065    0.0000 C   0  0  0  0  0  0  0  0  0  0  0  0
   -3.8271    1.2817    0.0000 O   0  0  0  0  0  0  0  0  0  0  0  0
   -3.8271    0.4569    0.0000 C   0  0  0  0  0  0  0  0  0  0  0  0
   -3.2437   -0.1263    0.0000 N   0  0  0  0  0  0  0  0  0  0  0  0
   -4.5413    0.0443    0.0000 O   0  0  0  0  0  0  0  0  0  0  0  0
   -3.2437   -0.9513    0.0000 C   0  0  0  0  0  0  0  0  0  0  0  0
   -0.8979    1.1565    0.0000 O   0  0  0  0  0  0  0  0  0  0  0  0
   -2.5294   -1.3636    0.0000 C   0  0  0  0  0  0  0  0  0  0  0  0
   -2.5294   -2.1884    0.0000 O   0  0  0  0  0  0  0  0  0  0  0  0
   -1.5775   -0.1221    0.0000 C   0  0  0  0  0  0  0  0  0  0  0  0
   -1.5775   -0.9634    0.0000 N   0  0  0  0  0  0  0  0  0  0  0  0
   -0.8699   -1.2541    0.0000 C   0  0  0  0  0  0  0  0  0  0  0  0
   -0.2831   -0.5427    0.0000 C   0  0  0  0  0  0  0  0  0  0  0  0
   -0.7775    0.1376    0.0000 C   0  0  1  0  0  0  0  0  0  0  0  0
   -2.3342    0.2505    0.0000 H   0  0  0  0  0  0  0  0  0  0  0  0
  1  2  1  1  0  0  0
  1 17  1  0  0  0  0
  1 18  1  0  0  0  0
  2  3  1  0  0  0  0
  3  4  1  0  0  0  0
  4  5  1  0  0  0  0
  5  6  1  0  0  0  0
  6  7  1  0  0  0  0
  7  8  2  0  0  0  0
  7 12  1  0  0  0  0
  8  9  1  0  0  0  0
  8 24  1  0  0  0  0
  9 10  2  0  0  0  0
 10 11  1  0  0  0  0
 10 13  1  0  0  0  0
 11 12  2  0  0  0  0
 11 16  1  0  0  0  0
 13 14  2  0  0  0  0
 14 15  1  0  0  0  0
 15 16  2  0  0  0  0
 17 18  1  6  0  0  0
 17 19  1  0  0  0  0
 19 20  1  0  0  0  0
 20 21  1  0  0  0  0
 20 22  2  0  0  0  0
 21 23  1  0  0  0  0
 21 32  1  0  0  0  0
 23 25  1  0  0  0  0
 25 26  2  0  0  0  0
 25 28  1  0  0  0  0
 27 28  1  0  0  0  0
 28 29  1  0  0  0  0
 29 30  1  0  0  0  0
 31 27  1  6  0  0  0
 31 30  1  0  0  0  0
 31 24  1  0  0  0  0
M  END
$$$$
O=C1c2ccccc2N/C/1=C\1/Nc2c(C1=O)cccc2
 OpenBabel07182308452D

 22 25  0  0  0  0  0  0  0  0999 V2000
   -2.2286    0.0000    0.0000 C   0  0  0  0  0  0  0  0  0  0  0  0
    3.9934    0.8250    0.0000 C   0  0  0  0  0  0  0  0  0  0  0  0
   -1.5141   -0.4125    0.0000 C   0  0  0  0  0  0  0  0  0  0  0  0
    3.2789    1.2375    0.0000 C   0  0  0  0  0  0  0  0  0  0  0  0
   -1.5141    1.2375    0.0000 C   0  0  0  0  0  0  0  0  0  0  0  0
    3.2789   -0.4125    0.0000 C   0  0  0  0  0  0  0  0  0  0  0  0
   -2.2286    0.8250    0.0000 C   0  0  0  0  0  0  0  0  0  0  0  0
    3.9934    0.0000    0.0000 C   0  0  0  0  0  0  0  0  0  0  0  0
   -0.7996    0.8250    0.0000 C   0  0  0  0  0  0  0  0  0  0  0  0
    2.5645    0.0000    0.0000 C   0  0  0  0  0  0  0  0  0  0  0  0
   -0.7996    0.0000    0.0000 C   0  0  0  0  0  0  0  0  0  0  0  0
    2.5645    0.8250    0.0000 C   0  0  0  0  0  0  0  0  0  0  0  0
    0.4699    0.4125    0.0000 C   0  0  0  0  0  0  0  0  0  0  0  0
    1.2949    0.4125    0.0000 C   0  0  0  0  0  0  0  0  0  0  0  0
   -0.0150    1.0799    0.0000 C   0  0  0  0  0  0  0  0  0  0  0  0
    1.7798   -0.2549    0.0000 C   0  0  0  0  0  0  0  0  0  0  0  0
   -0.0150   -0.2549    0.0000 N   0  0  0  0  0  0  0  0  0  0  0  0
    1.7798    1.0799    0.0000 N   0  0  0  0  0  0  0  0  0  0  0  0
    0.2399    1.8646    0.0000 O   0  0  0  0  0  0  0  0  0  0  0  0
    1.5249   -1.0396    0.0000 O   0  0  0  0  0  0  0  0  0  0  0  0
    0.2892   -1.1912    0.0000 H   0  0  0  0  0  0  0  0  0  0  0  0
    1.4755    2.0162    0.0000 H   0  0  0  0  0  0  0  0  0  0  0  0
  3  1  2  0  0  0  0
  4  2  2  0  0  0  0
  7  1  1  0  0  0  0
  7  5  2  0  0  0  0
  8  2  1  0  0  0  0
  8  6  2  0  0  0  0
  9  5  1  0  0  0  0
 10  6  1  0  0  0  0
 11  3  1  0  0  0  0
 11  9  2  0  0  0  0
 12  4  1  0  0  0  0
 12 10  2  0  0  0  0
 14 13  2  0  0  0  0
 15  9  1  0  0  0  0
 15 13  1  0  0  0  0
 16 10  1  0  0  0  0
 16 14  1  0  0  0  0
 17 11  1  0  0  0  0
 17 13  1  0  0  0  0
 17 21  1  0  0  0  0
 18 12  1  0  0  0  0
 18 14  1  0  0  0  0
 18 22  1  0  0  0  0
 19 15  2  0  0  0  0
 20 16  2  0  0  0  0
M  END
$$$$
CC1(C)CCC=CC1
 OpenBabel07182308452D

  8  8  0  0  0  0  0  0  0  0999 V2000
   -1.1677   -4.4685    0.0000 C   0  0  0  0  0  0  0  0  0  0  0  0
   -0.4465   -4.0679    0.0000 C   0  0  0  0  0  0  0  0  0  0  0  0
    0.2545   -4.4805    0.0000 C   0  0  0  0  0  0  0  0  0  0  0  0
    0.2545   -5.3300    0.0000 C   0  0  0  0  0  0  0  0  0  0  0  0
   -0.4666   -5.7306    0.0000 C   0  0  0  0  0  0  0  0  0  0  0  0
   -1.1878   -5.2819    0.0000 C   0  0  0  0  0  0  0  0  0  0  0  0
    0.9357   -5.2819    0.0000 C   0  0  0  0  0  0  0  0  0  0  0  0
    0.5230   -5.9831    0.0000 C   0  0  0  0  0  0  0  0  0  0  0  0
  1  2  1  0  0  0  0
  1  6  2  0  0  0  0
  2  3  1  0  0  0  0
  3  4  1  0  0  0  0
  4  5  1  0  0  0  0
  4  7  1  0  0  0  0
  4  8  1  0  0  0  0
  5  6  1  0  0  0  0
M  END
$$$$
CC1CCOCC1
 OpenBabel07182308452D

  7  7  0  0  0  0  0  0  0  0999 V2000
    1.8889    5.3290    0.0000 C   0  0  0  0  0  0  0  0  0  0  0  0
    2.6313    5.7417    0.0000 C   0  0  0  0  0  0  0  0  0  0  0  0
    3.3319    5.3059    0.0000 C   0  0  0  0  0  0  0  0  0  0  0  0
    4.0525    5.6836    0.0000 C   0  0  0  0  0  0  0  0  0  0  0  0
    4.0725    6.4969    0.0000 O   0  0  0  0  0  0  0  0  0  0  0  0
    3.3719    6.9327    0.0000 C   0  0  0  0  0  0  0  0  0  0  0  0
    2.6514    6.5550    0.0000 C   0  0  0  0  0  0  0  0  0  0  0  0
  1  2  1  0  0  0  0
  2  3  1  0  0  0  0
  2  7  1  0  0  0  0
  3  4  1  0  0  0  0
  4  5  1  0  0  0  0
  5  6  1  0  0  0  0
  6  7  1  0  0  0  0
M  END
$$$$
C[Si](O)(O)C
 OpenBabel07182308452D

  5  4  0  0  0  0  0  0  0  0999 V2000
    2.6383    0.8102    0.0000 Si  0  0  0  0  0  0  0  0  0  0  0  0
    3.4633    0.8102    0.0000 O   0  0  0  0  0  0  0  0  0  0  0  0
    2.6383    1.6352    0.0000 O   0  0  0  0  0  0  0  0  0  0  0  0
    1.8133    0.8102    0.0000 C   0  0  0  0  0  0  0  0  0  0  0  0
    2.6383   -0.0147    0.0000 C   0  0  0  0  0  0  0  0  0  0  0  0
  1  2  1  0  0  0  0
  1  3  1  0  0  0  0
  1  4  1  0  0  0  0
  1  5  1  0  0  0  0
M  END
$$$$
C[SiH](C)C
 OpenBabel07182308452D

  4  3  0  0  0  0  0  0  0  0999 V2000
    3.8758    1.5246    0.0000 Si  0  0  0  0  0  0  0  0  0  0  0  0
    4.2883    2.2391    0.0000 C   0  0  0  0  0  0  0  0  0  0  0  0
    4.5902    1.1121    0.0000 C   0  0  0  0  0  0  0  0  0  0  0  0
    3.1613    1.9371    0.0000 C   0  0  0  0  0  0  0  0  0  0  0  0
  1  2  1  0  0  0  0
  1  3  1  0  0  0  0
  1  4  1  0  0  0  0
M  END
$$$$
Clc1ccc2c(c1)c(O)ncc2
 OpenBabel07182308452D

 12 13  0  0  0  0  0  0  0  0999 V2000
    1.4247   -1.1157    0.0000 O   0  0  0  0  0  0  0  0  0  0  0  0
    2.1392   -0.7032    0.0000 C   0  0  0  0  0  0  0  0  0  0  0  0
    3.5194   -0.3334    0.0000 C   0  0  0  0  0  0  0  0  0  0  0  0
    3.3059    0.4634    0.0000 C   0  0  0  0  0  0  0  0  0  0  0  0
    2.5090    0.6770    0.0000 C   0  0  0  0  0  0  0  0  0  0  0  0
    1.9256    0.0936    0.0000 N   0  0  0  0  0  0  0  0  0  0  0  0
    2.9361   -0.9167    0.0000 C   0  0  0  0  0  0  0  0  0  0  0  0
    3.1496   -1.7136    0.0000 C   0  0  0  0  0  0  0  0  0  0  0  0
    3.9465   -1.9272    0.0000 C   0  0  0  0  0  0  0  0  0  0  0  0
    4.5298   -1.3438    0.0000 C   0  0  0  0  0  0  0  0  0  0  0  0
    4.3162   -0.5469    0.0000 C   0  0  0  0  0  0  0  0  0  0  0  0
    4.1822   -2.7227    0.0000 Cl  0  0  0  0  0  0  0  0  0  0  0  0
  1  2  1  0  0  0  0
  2  7  1  0  0  0  0
  3  4  1  0  0  0  0
  3  7  2  0  0  0  0
  3 11  1  0  0  0  0
  4  5  2  0  0  0  0
  5  6  1  0  0  0  0
  6  2  2  0  0  0  0
  7  8  1  0  0  0  0
  8  9  2  0  0  0  0
  9 10  1  0  0  0  0
  9 12  1  0  0  0  0
 10 11  2  0  0  0  0
M  END
$$$$
[C-]#[O+]
 OpenBabel07182308452D

  2  1  0  0  0  0  0  0  0  0999 V2000
    0.4125    0.0000    0.0000 O   0  3  0  0  0  0  0  0  0  0  0  0
   -0.4125    0.0000    0.0000 C   0  5  0  0  0  0  0  0  0  0  0  0
  2  1  3  0  0  0  0
M  CHG  2   1   1   2  -1
M  END
$$$$
[Ne]
 OpenBabel07182308452D

  1  0  0  0  0  0  0  0  0  0999 V2000
    0.0000    0.0000    0.0000 Ne  0  0  0  0  0  0  0  0  0  0  0  0
M  END
$$$$
CC[Hg]Sc1ccccc1
 OpenBabel07182308452D

 10 10  0  0  0  0  0  0  0  0999 V2000
   -0.7144   -0.2062    0.0000 C   0  0  0  0  0  0  0  0  0  0  0  0
   -1.4288    0.2062    0.0000 C   0  0  0  0  0  0  0  0  0  0  0  0
   -0.7144   -1.0312    0.0000 C   0  0  0  0  0  0  0  0  0  0  0  0
    0.0000    0.2062    0.0000 S   0  0  0  0  0  0  0  0  0  0  0  0
   -2.1433   -0.2062    0.0000 C   0  0  0  0  0  0  0  0  0  0  0  0
   -1.4288   -1.4437    0.0000 C   0  0  0  0  0  0  0  0  0  0  0  0
    0.7145   -0.2062    0.0000 Hg  0  0  0  0  0  0  0  0  0  0  0  0
   -2.1433   -1.0312    0.0000 C   0  0  0  0  0  0  0  0  0  0  0  0
    1.4289    0.2062    0.0000 C   0  0  0  0  0  0  0  0  0  0  0  0
    2.1434   -0.2062    0.0000 C   0  0  0  0  0  0  0  0  0  0  0  0
  1  2  1  0  0  0  0
  1  3  2  0  0  0  0
  1  4  1  0  0  0  0
  2  5  2  0  0  0  0
  3  6  1  0  0  0  0
  4  7  1  0  0  0  0
  5  8  1  0  0  0  0
  6  8  2  0  0  0  0
  7  9  1  0  0  0  0
  9 10  1  0  0  0  0
M  END
$$$$
Nc1nc(=O)c2c([nH]1)NCCN2
 OpenBabel07182308452D

 16 17  0  0  1  0  0  0  0  0999 V2000
   11.3948    0.1634    0.0000 O   0  0  0  0  0  0  0  0  0  0  0  0
    9.9524    1.0170    0.0000 N   0  0  0  0  0  0  0  0  0  0  0  0
    9.9524    2.6670    0.0000 N   0  0  0  0  0  0  0  0  0  0  0  0
   11.4044    2.6957    0.0000 N   0  0  0  0  0  0  0  0  0  0  0  0
   12.1519    1.4123    0.0000 N   0  0  0  0  0  0  0  0  0  0  0  0
   12.8648    2.6869    0.0000 N   0  0  0  0  0  0  0  0  0  0  0  0
    9.2379    1.4295    0.0000 C   0  0  0  0  0  0  0  0  0  0  0  0
    9.2379    2.2545    0.0000 C   0  0  0  0  0  0  0  0  0  0  0  0
   10.6668    1.4295    0.0000 C   0  0  0  0  0  0  0  0  0  0  0  0
   10.6668    2.2545    0.0000 C   0  0  0  0  0  0  0  0  0  0  0  0
   11.4044    0.9884    0.0000 C   0  0  0  0  0  0  0  0  0  0  0  0
   12.1519    2.2717    0.0000 C   0  0  0  0  0  0  0  0  0  0  0  0
    9.9524    3.6515    0.0000 H   0  0  0  0  0  0  0  0  0  0  0  0
   11.3930    3.6801    0.0000 H   0  0  0  0  0  0  0  0  0  0  0  0
   13.7193    2.1979    0.0000 H   0  0  0  0  0  0  0  0  0  0  0  0
   12.8611    3.6714    0.0000 H   0  0  0  0  0  0  0  0  0  0  0  0
  1 11  2  0  0  0  0
  2  7  1  0  0  0  0
  2  9  1  0  0  0  0
  3  8  1  0  0  0  0
  3 10  1  0  0  0  0
  3 13  1  0  0  0  0
  4 10  1  0  0  0  0
  4 12  1  0  0  0  0
  4 14  1  0  0  0  0
  5 11  1  0  0  0  0
  5 12  2  0  0  0  0
  6 12  1  0  0  0  0
  6 15  1  0  0  0  0
  6 16  1  0  0  0  0
  7  8  1  0  0  0  0
  9 10  2  0  0  0  0
  9 11  1  0  0  0  0
M  END
$$$$
OC1COC(C(C1O)O)O
 OpenBabel07182308452D

 10 10  0  0  0  0  0  0  0  0999 V2000
    0.0000    1.4437    0.0000 C   0  0  0  0  0  0  0  0  0  0  0  0
    0.7144    1.8562    0.0000 C   0  0  3  0  0  0  0  0  0  0  0  0
    1.4289    1.4437    0.0000 C   0  0  3  0  0  0  0  0  0  0  0  0
    1.4289    0.6187    0.0000 C   0  0  3  0  0  0  0  0  0  0  0  0
    0.7144    0.2062    0.0000 C   0  0  3  0  0  0  0  0  0  0  0  0
    0.0000    0.6187    0.0000 O   0  0  0  0  0  0  0  0  0  0  0  0
    0.7144   -0.6187    0.0000 O   0  0  0  0  0  0  0  0  0  0  0  0
    2.1434    0.2062    0.0000 O   0  0  0  0  0  0  0  0  0  0  0  0
    2.1434    1.8562    0.0000 O   0  0  0  0  0  0  0  0  0  0  0  0
    0.7144    2.6812    0.0000 O   0  0  0  0  0  0  0  0  0  0  0  0
  1  2  1  0  0  0  0
  1  6  1  0  0  0  0
  2  3  1  0  0  0  0
  2 10  1  0  0  0  0
  3  4  1  0  0  0  0
  3  9  1  0  0  0  0
  4  5  1  0  0  0  0
  4  8  1  0  0  0  0
  5  6  1  0  0  0  0
  5  7  1  0  0  0  0
M  END
$$$$
CC1CC(O)C(C(O1)O)O
 OpenBabel07182308452D

 10 10  0  0  0  0  0  0  0  0999 V2000
    0.0000   -1.0312    0.0000 C   0  0  0  0  0  0  0  0  0  0  0  0
    0.0000   -1.8562    0.0000 C   0  0  3  0  0  0  0  0  0  0  0  0
   -0.7144   -2.2687    0.0000 O   0  0  0  0  0  0  0  0  0  0  0  0
   -1.4289   -1.8562    0.0000 C   0  0  3  0  0  0  0  0  0  0  0  0
   -1.4289   -1.0312    0.0000 C   0  0  3  0  0  0  0  0  0  0  0  0
   -0.7144   -0.6187    0.0000 C   0  0  3  0  0  0  0  0  0  0  0  0
   -0.7144    0.2062    0.0000 O   0  0  0  0  0  0  0  0  0  0  0  0
   -2.1434   -0.6187    0.0000 O   0  0  0  0  0  0  0  0  0  0  0  0
   -2.1434   -2.2687    0.0000 O   0  0  0  0  0  0  0  0  0  0  0  0
    0.7144   -2.2687    0.0000 C   0  0  0  0  0  0  0  0  0  0  0  0
  1  2  1  0  0  0  0
  1  6  1  0  0  0  0
  2  3  1  0  0  0  0
  2 10  1  0  0  0  0
  3  4  1  0  0  0  0
  4  5  1  0  0  0  0
  4  9  1  0  0  0  0
  5  6  1  0  0  0  0
  5  8  1  0  0  0  0
  6  7  1  0  0  0  0
M  END
$$$$
Clc1cc2CNCCc2c(c1)Cl
 OpenBabel07182308452D

 12 13  0  0  0  0  0  0  0  0999 V2000
    0.6387   -2.3613    0.0000 C   0  0  0  0  0  0  0  0  0  0  0  0
    1.3552   -1.9480    0.0000 C   0  0  0  0  0  0  0  0  0  0  0  0
    1.3524   -1.1173    0.0000 C   0  0  0  0  0  0  0  0  0  0  0  0
    0.6369   -0.7083    0.0000 C   0  0  0  0  0  0  0  0  0  0  0  0
   -0.0760   -1.9484    0.0000 C   0  0  0  0  0  0  0  0  0  0  0  0
   -0.0764   -1.1209    0.0000 C   0  0  0  0  0  0  0  0  0  0  0  0
   -0.7891   -0.7100    0.0000 C   0  0  0  0  0  0  0  0  0  0  0  0
   -1.5062   -1.1216    0.0000 C   0  0  0  0  0  0  0  0  0  0  0  0
   -1.5058   -1.9492    0.0000 N   0  0  0  0  0  0  0  0  0  0  0  0
   -0.7883   -2.3648    0.0000 C   0  0  0  0  0  0  0  0  0  0  0  0
    0.6348    0.1167    0.0000 Cl  0  0  0  0  0  0  0  0  0  0  0  0
    2.0704   -2.3593    0.0000 Cl  0  0  0  0  0  0  0  0  0  0  0  0
  1  2  2  0  0  0  0
  2  3  1  0  0  0  0
  2 12  1  0  0  0  0
  3  4  2  0  0  0  0
  4  6  1  0  0  0  0
  4 11  1  0  0  0  0
  5  1  1  0  0  0  0
  5  6  2  0  0  0  0
  5 10  1  0  0  0  0
  6  7  1  0  0  0  0
  7  8  1  0  0  0  0
  8  9  1  0  0  0  0
  9 10  1  0  0  0  0
M  END
$$$$
C[C@H]1CCCN1
 OpenBabel07182308452D

  6  6  0  0  0  0  0  0  0  0999 V2000
    5.8394   -0.5197    0.0000 N   0  0  0  0  0  0  0  0  0  0  0  0
    6.6465   -0.3485    0.0000 C   0  0  1  0  0  0  0  0  0  0  0  0
    6.9823    0.4048    0.0000 C   0  0  0  0  0  0  0  0  0  0  0  0
    7.0588   -1.0631    0.0000 C   0  0  0  0  0  0  0  0  0  0  0  0
    6.5064   -1.6761    0.0000 C   0  0  0  0  0  0  0  0  0  0  0  0
    5.7528   -1.3401    0.0000 C   0  0  0  0  0  0  0  0  0  0  0  0
  1  2  1  0  0  0  0
  1  6  1  0  0  0  0
  2  3  1  1  0  0  0
  2  4  1  0  0  0  0
  5  4  1  0  0  0  0
  6  5  1  0  0  0  0
M  END
$$$$
c1ccc2c(c1)c1cc3ccc4c(c3cc1OC2)[nH]cn4
 OpenBabel07182308452D

 22 26  0  0  0  0  0  0  0  0999 V2000
    5.0382   -1.7526    0.0000 C   0  0  0  0  0  0  0  0  0  0  0  0
    4.9521   -2.5731    0.0000 N   0  0  0  0  0  0  0  0  0  0  0  0
    4.1452   -2.7447    0.0000 C   0  0  0  0  0  0  0  0  0  0  0  0
    3.7325   -3.4591    0.0000 C   0  0  0  0  0  0  0  0  0  0  0  0
    2.9075   -3.4591    0.0000 C   0  0  0  0  0  0  0  0  0  0  0  0
    2.4950   -2.7446    0.0000 C   0  0  0  0  0  0  0  0  0  0  0  0
    1.6700   -2.7446    0.0000 C   0  0  0  0  0  0  0  0  0  0  0  0
    1.2575   -2.0301    0.0000 C   0  0  0  0  0  0  0  0  0  0  0  0
    0.4324   -2.0301    0.0000 C   0  0  0  0  0  0  0  0  0  0  0  0
    0.0201   -2.7446    0.0000 C   0  0  0  0  0  0  0  0  0  0  0  0
   -0.8049   -2.7445    0.0000 C   0  0  0  0  0  0  0  0  0  0  0  0
   -1.2175   -2.0301    0.0000 C   0  0  0  0  0  0  0  0  0  0  0  0
   -0.8048   -1.3155    0.0000 C   0  0  0  0  0  0  0  0  0  0  0  0
    0.0200   -1.3156    0.0000 C   0  0  0  0  0  0  0  0  0  0  0  0
    0.4325   -0.6012    0.0000 C   0  0  0  0  0  0  0  0  0  0  0  0
    1.2575   -0.6011    0.0000 O   0  0  0  0  0  0  0  0  0  0  0  0
    1.6700   -1.3156    0.0000 C   0  0  0  0  0  0  0  0  0  0  0  0
    2.4950   -1.3156    0.0000 C   0  0  0  0  0  0  0  0  0  0  0  0
    2.9075   -2.0301    0.0000 C   0  0  0  0  0  0  0  0  0  0  0  0
    3.7325   -2.0301    0.0000 C   0  0  0  0  0  0  0  0  0  0  0  0
    4.2846   -1.4170    0.0000 N   0  0  0  0  0  0  0  0  0  0  0  0
    4.0800   -0.4540    0.0000 H   0  0  0  0  0  0  0  0  0  0  0  0
  1  2  2  0  0  0  0
  1 21  1  0  0  0  0
  2  3  1  0  0  0  0
  3  4  1  0  0  0  0
  4  5  2  0  0  0  0
  6  5  1  0  0  0  0
  6  7  1  0  0  0  0
  7  8  2  0  0  0  0
  8  9  1  0  0  0  0
  9 10  2  0  0  0  0
  9 14  1  0  0  0  0
 10 11  1  0  0  0  0
 11 12  2  0  0  0  0
 13 12  1  0  0  0  0
 14 13  2  0  0  0  0
 15 14  1  0  0  0  0
 16 15  1  0  0  0  0
 17 16  1  0  0  0  0
 17  8  1  0  0  0  0
 18 17  2  0  0  0  0
 19 18  1  0  0  0  0
 19  6  2  0  0  0  0
 20 19  1  0  0  0  0
 20  3  2  0  0  0  0
 21 20  1  0  0  0  0
 21 22  1  0  0  0  0
M  END
$$$$
C[C@@H]1CNCC1
 OpenBabel07182308452D

  6  6  0  0  0  0  0  0  0  0999 V2000
   -3.9794   -1.1325    0.0000 C   0  0  0  0  0  0  0  0  0  0  0  0
   -4.7641   -1.3873    0.0000 C   0  0  0  0  0  0  0  0  0  0  0  0
   -5.2490   -0.7199    0.0000 C   0  0  2  0  0  0  0  0  0  0  0  0
   -6.0740   -0.7199    0.0000 C   0  0  0  0  0  0  0  0  0  0  0  0
   -4.7641   -0.0526    0.0000 C   0  0  0  0  0  0  0  0  0  0  0  0
   -3.9792   -0.3075    0.0000 N   0  0  0  0  0  0  0  0  0  0  0  0
  1  2  1  0  0  0  0
  1  6  1  0  0  0  0
  2  3  1  0  0  0  0
  3  4  1  6  0  0  0
  5  3  1  0  0  0  0
  6  5  1  0  0  0  0
M  END
$$$$
C#C[C@]1(O)CC[C@@H]2C1C=CC1=C3CCC(=O)C=C3CC[C@@H]21
 OpenBabel07182308452D

 24 27  0  0  1  0  0  0  0  0999 V2000
   25.2305  -14.5000    0.0000 O   0  0  0  0  0  0  0  0  0  0  0  0
   20.2542  -18.0546    0.0000 O   0  0  0  0  0  0  0  0  0  0  0  0
   24.7035  -15.5364    0.0000 C   0  0  3  0  0  0  0  0  0  0  0  0
   24.7035  -16.3614    0.0000 C   0  0  2  0  0  0  0  0  0  0  0  0
   23.9891  -16.7739    0.0000 C   0  0  1  0  0  0  0  0  0  0  0  0
   25.4841  -15.2850    0.0000 C   0  0  2  0  0  0  0  0  0  0  0  0
   25.4841  -16.6129    0.0000 C   0  0  0  0  0  0  0  0  0  0  0  0
   25.9656  -15.9489    0.0000 C   0  0  0  0  0  0  0  0  0  0  0  0
   23.2745  -16.3614    0.0000 C   0  0  0  0  0  0  0  0  0  0  0  0
   23.9891  -15.1239    0.0000 C   0  0  0  0  0  0  0  0  0  0  0  0
   24.0023  -17.6332    0.0000 C   0  0  0  0  0  0  0  0  0  0  0  0
   23.2745  -15.5364    0.0000 C   0  0  0  0  0  0  0  0  0  0  0  0
   22.5238  -16.7796    0.0000 C   0  0  0  0  0  0  0  0  0  0  0  0
   23.2614  -18.0686    0.0000 C   0  0  0  0  0  0  0  0  0  0  0  0
   22.5172  -17.6389    0.0000 C   0  0  0  0  0  0  0  0  0  0  0  0
   26.1524  -14.8012    0.0000 C   0  0  0  0  0  0  0  0  0  0  0  0
   21.7592  -16.3142    0.0000 C   0  0  0  0  0  0  0  0  0  0  0  0
   21.7455  -18.0924    0.0000 C   0  0  0  0  0  0  0  0  0  0  0  0
   20.9771  -16.7498    0.0000 C   0  0  0  0  0  0  0  0  0  0  0  0
   20.9702  -17.6449    0.0000 C   0  0  0  0  0  0  0  0  0  0  0  0
   26.8207  -14.3175    0.0000 C   0  0  0  0  0  0  0  0  0  0  0  0
   24.7733  -17.0178    0.0000 H   0  0  0  0  0  0  0  0  0  0  0  0
   24.5631  -17.0995    0.0000 H   0  0  0  0  0  0  0  0  0  0  0  0
   25.8808  -13.7802    0.0000 H   0  0  0  0  0  0  0  0  0  0  0  0
  1 24  1  0  0  0  0
  2 20  2  0  0  0  0
  3  4  1  0  0  0  0
  3  6  1  0  0  0  0
  3 10  1  0  0  0  0
  4  5  1  1  0  0  0
  4  7  1  0  0  0  0
  4 22  1  0  0  0  0
  5  9  1  0  0  0  0
  5 11  1  0  0  0  0
  5 23  1  1  0  0  0
  6  1  1  0  0  0  0
  6  8  1  0  0  0  0
  6 16  1  6  0  0  0
  7  8  1  0  0  0  0
  9 12  1  0  0  0  0
  9 13  2  0  0  0  0
 10 12  2  0  0  0  0
 11 14  1  0  0  0  0
 13 15  1  0  0  0  0
 13 17  1  0  0  0  0
 14 15  1  0  0  0  0
 15 18  2  0  0  0  0
 16 21  3  0  0  0  0
 17 19  1  0  0  0  0
 18 20  1  0  0  0  0
 19 20  1  0  0  0  0
M  END
$$$$
O=C1CC[C@]2([C@@H](C1)CC(=O)[C@@H]1[C@@H]2CC(=O)[C@]2([C@H]1CCC2)C)C
 OpenBabel07182308452D

 27 30  0  0  0  0  0  0  0  0999 V2000
   -2.6424   -0.5258    0.0000 C   0  0  0  0  0  0  0  0  0  0  0  0
   -3.3568   -0.9383    0.0000 C   0  0  0  0  0  0  0  0  0  0  0  0
   -2.6424   -2.1759    0.0000 C   0  0  0  0  0  0  0  0  0  0  0  0
   -1.2134   -2.1759    0.0000 C   0  0  0  0  0  0  0  0  0  0  0  0
   -1.9279   -0.9383    0.0000 C   0  0  2  0  0  0  0  0  0  0  0  0
   -1.2134    0.2991    0.0000 C   0  0  0  0  0  0  0  0  0  0  0  0
    1.0000   -0.7807    0.0000 C   0  0  0  0  0  0  0  0  0  0  0  0
    1.4850   -0.1133    0.0000 C   0  0  0  0  0  0  0  0  0  0  0  0
   -1.9279   -0.1133    0.0000 C   0  0  0  0  0  0  0  0  0  0  0  0
   -1.2134   -0.5258    0.0000 C   0  0  1  0  0  0  0  0  0  0  0  0
   -1.2134   -1.3508    0.0000 H   0  0  0  0  0  0  0  0  0  0  0  0
   -0.4990   -0.9383    0.0000 C   0  0  2  0  0  0  0  0  0  0  0  0
   -0.4990   -0.1133    0.0000 H   0  0  0  0  0  0  0  0  0  0  0  0
    0.2154   -0.5258    0.0000 C   0  0  1  0  0  0  0  0  0  0  0  0
    0.2154    0.2991    0.0000 C   0  0  1  0  0  0  0  0  0  0  0  0
    0.2154    1.1241    0.0000 C   0  0  0  0  0  0  0  0  0  0  0  0
    0.2154   -1.3508    0.0000 H   0  0  0  0  0  0  0  0  0  0  0  0
    1.7145    0.9665    0.0000 H   0  0  0  0  0  0  0  0  0  0  0  0
   -3.3568   -1.7633    0.0000 C   0  0  0  0  0  0  0  0  0  0  0  0
   -4.0713   -2.1759    0.0000 O   0  0  0  0  0  0  0  0  0  0  0  0
   -0.4990   -1.7633    0.0000 C   0  0  0  0  0  0  0  0  0  0  0  0
    0.2154   -2.1759    0.0000 O   0  0  0  0  0  0  0  0  0  0  0  0
   -1.9279   -1.7633    0.0000 C   0  0  1  0  0  0  0  0  0  0  0  0
   -1.9279   -2.5884    0.0000 H   0  0  0  0  0  0  0  0  0  0  0  0
    1.0000    0.5540    0.0000 C   0  0  0  0  0  0  0  0  0  0  0  0
   -0.4990    0.7116    0.0000 C   0  0  0  0  0  0  0  0  0  0  0  0
   -0.4990    1.5366    0.0000 O   0  0  0  0  0  0  0  0  0  0  0  0
  2  1  1  0  0  0  0
  4 21  1  0  0  0  0
  5 10  1  6  0  0  0
  5  9  1  0  0  0  0
  5  1  1  0  0  0  0
  6 26  1  0  0  0  0
  8  7  1  0  0  0  0
 10  6  1  0  0  0  0
 10 12  1  1  0  0  0
 10 11  1  0  0  0  0
 12 14  1  6  0  0  0
 12 21  1  0  0  0  0
 12 13  1  0  0  0  0
 14 15  1  6  0  0  0
 14  7  1  0  0  0  0
 14 17  1  0  0  0  0
 15 25  1  0  0  0  0
 15 26  1  0  0  0  0
 15 16  1  1  0  0  0
 19  3  1  0  0  0  0
 19  2  1  0  0  0  0
 19 20  2  0  0  0  0
 21 22  2  0  0  0  0
 23  5  1  1  0  0  0
 23  3  1  0  0  0  0
 23  4  1  0  0  0  0
 23 24  1  0  0  0  0
 25  8  1  0  0  0  0
 25 18  1  0  0  0  0
 26 27  2  0  0  0  0
M  END
$$$$
Fc1ccc2c(c1)c1CC[C@@H](c1n2C)C
 OpenBabel07182308452D

 15 17  0  0  1  0  0  0  0  0999 V2000
    5.4546    1.8694    0.0000 C   0  0  0  0  0  0  0  0  0  0  0  0
    6.0186    1.2673    0.0000 C   0  0  0  0  0  0  0  0  0  0  0  0
    5.7792    0.4778    0.0000 C   0  0  0  0  0  0  0  0  0  0  0  0
    4.9758    0.2904    0.0000 C   0  0  0  0  0  0  0  0  0  0  0  0
    4.4118    0.8925    0.0000 C   0  0  0  0  0  0  0  0  0  0  0  0
    4.6512    1.6820    0.0000 C   0  0  0  0  0  0  0  0  0  0  0  0
    3.9743    2.1537    0.0000 N   0  0  0  0  0  0  0  0  0  0  0  0
    3.3166    1.6557    0.0000 C   0  0  0  0  0  0  0  0  0  0  0  0
    3.5869    0.8763    0.0000 C   0  0  0  0  0  0  0  0  0  0  0  0
    2.9292    0.3783    0.0000 C   0  0  0  0  0  0  0  0  0  0  0  0
    2.2523    0.8500    0.0000 C   0  0  0  0  0  0  0  0  0  0  0  0
    2.4917    1.6395    0.0000 C   0  0  2  0  0  0  0  0  0  0  0  0
    1.9938    2.2972    0.0000 C   0  0  0  0  0  0  0  0  0  0  0  0
    3.9581    2.9785    0.0000 C   0  0  0  0  0  0  0  0  0  0  0  0
    6.3432   -0.1242    0.0000 F   0  0  0  0  0  0  0  0  0  0  0  0
  1  2  1  0  0  0  0
  1  6  2  0  0  0  0
  2  3  2  0  0  0  0
  3  4  1  0  0  0  0
  3 15  1  0  0  0  0
  4  5  2  0  0  0  0
  5  6  1  0  0  0  0
  5  9  1  0  0  0  0
  6  7  1  0  0  0  0
  7  8  1  0  0  0  0
  7 14  1  0  0  0  0
  8  9  2  0  0  0  0
  8 12  1  0  0  0  0
  9 10  1  0  0  0  0
 10 11  1  0  0  0  0
 11 12  1  0  0  0  0
 12 13  1  6  0  0  0
M  END
$$$$
c1cc2[nH]c1/C=C\1/CCC(=N1)/C=c\1/cc/c(=C/C3=N/C(=C\2)/C=C3)/[nH]1
 OpenBabel07182308452D

 26 30  0  0  0  0  0  0  0  0999 V2000
   -1.4819   -2.0624    0.0000 C   0  0  0  0  0  0  0  0  0  0  0  0
    1.5044   -2.0364    0.0000 C   0  0  0  0  0  0  0  0  0  0  0  0
   -2.0430   -1.5110    0.0000 C   0  0  0  0  0  0  0  0  0  0  0  0
    2.0558   -1.4752    0.0000 C   0  0  0  0  0  0  0  0  0  0  0  0
   -2.0393    1.4169    0.0000 C   0  0  0  0  0  0  0  0  0  0  0  0
    2.0297    1.5110    0.0000 C   0  0  0  0  0  0  0  0  0  0  0  0
   -1.4588    2.0076    0.0000 C   0  0  0  0  0  0  0  0  0  0  0  0
    1.4686    2.0624    0.0000 C   0  0  0  0  0  0  0  0  0  0  0  0
   -0.7243   -1.6459    0.0000 C   0  0  0  0  0  0  0  0  0  0  0  0
    0.7106   -1.6627    0.0000 C   0  0  0  0  0  0  0  0  0  0  0  0
   -1.6690   -0.7465    0.0000 C   0  0  0  0  0  0  0  0  0  0  0  0
    1.6683   -0.6881    0.0000 C   0  0  0  0  0  0  0  0  0  0  0  0
   -1.6818    0.7174    0.0000 C   0  0  0  0  0  0  0  0  0  0  0  0
    1.6265    0.7462    0.0000 C   0  0  0  0  0  0  0  0  0  0  0  0
   -0.7239    1.6627    0.0000 C   0  0  0  0  0  0  0  0  0  0  0  0
    0.7107    1.6752    0.0000 C   0  0  0  0  0  0  0  0  0  0  0  0
    0.0112   -2.0494    0.0000 C   0  0  0  0  0  0  0  0  0  0  0  0
   -2.0558   -0.0472    0.0000 C   0  0  0  0  0  0  0  0  0  0  0  0
    2.0427    0.0179    0.0000 C   0  0  0  0  0  0  0  0  0  0  0  0
    0.0047    2.0496    0.0000 C   0  0  0  0  0  0  0  0  0  0  0  0
   -0.8480   -0.8857    0.0000 N   0  0  0  0  0  0  0  0  0  0  0  0
    0.8501   -0.8709    0.0000 N   0  0  0  0  0  0  0  0  0  0  0  0
   -0.8926    0.8706    0.0000 N   0  0  0  0  0  0  0  0  0  0  0  0
    0.8643    0.8567    0.0000 N   0  0  0  0  0  0  0  0  0  0  0  0
    0.1383   -0.1907    0.0000 H   0  0  0  0  0  0  0  0  0  0  0  0
   -0.2028    0.1682    0.0000 H   0  0  0  0  0  0  0  0  0  0  0  0
  3  1  2  0  0  0  0
  4  2  2  0  0  0  0
  7  5  1  0  0  0  0
  8  6  1  0  0  0  0
  9  1  1  0  0  0  0
 10  2  1  0  0  0  0
 11  3  1  0  0  0  0
 12  4  1  0  0  0  0
 13  5  2  0  0  0  0
 14  6  1  0  0  0  0
 15  7  2  0  0  0  0
 16  8  1  0  0  0  0
 17  9  1  0  0  0  0
 17 10  2  0  0  0  0
 18 11  2  0  0  0  0
 18 13  1  0  0  0  0
 19 12  2  0  0  0  0
 19 14  1  0  0  0  0
 20 15  1  0  0  0  0
 20 16  2  0  0  0  0
 21  9  2  0  0  0  0
 21 11  1  0  0  0  0
 22 10  1  0  0  0  0
 22 12  1  0  0  0  0
 22 25  1  0  0  0  0
 23 13  1  0  0  0  0
 23 15  1  0  0  0  0
 23 26  1  0  0  0  0
 24 14  2  0  0  0  0
 24 16  1  0  0  0  0
M  END
$$$$
Clc1cc(C)c(c([n+]1[O-])C)Cl
 OpenBabel07182308452D

 11 11  0  0  0  0  0  0  0  0999 V2000
    2.1434   -0.4125    0.0000 C   0  0  0  0  0  0  0  0  0  0  0  0
    1.4289    0.0000    0.0000 C   0  0  0  0  0  0  0  0  0  0  0  0
    0.7145   -0.4125    0.0000 C   0  0  0  0  0  0  0  0  0  0  0  0
    0.0000    0.0000    0.0000 C   0  0  0  0  0  0  0  0  0  0  0  0
    0.0000    0.8250    0.0000 N   0  3  0  0  0  0  0  0  0  0  0  0
    0.7145    1.2375    0.0000 C   0  0  0  0  0  0  0  0  0  0  0  0
    1.4289    0.8250    0.0000 C   0  0  0  0  0  0  0  0  0  0  0  0
    2.1434    1.2375    0.0000 Cl  0  0  0  0  0  0  0  0  0  0  0  0
    0.7145    2.0625    0.0000 C   0  0  0  0  0  0  0  0  0  0  0  0
   -0.7145    1.2375    0.0000 O   0  5  0  0  0  0  0  0  0  0  0  0
   -0.7145   -0.4125    0.0000 Cl  0  0  0  0  0  0  0  0  0  0  0  0
  1  2  1  0  0  0  0
  2  3  2  0  0  0  0
  2  7  1  0  0  0  0
  3  4  1  0  0  0  0
  4  5  2  0  0  0  0
  4 11  1  0  0  0  0
  5  6  1  0  0  0  0
  5 10  1  0  0  0  0
  6  7  2  0  0  0  0
  6  9  1  0  0  0  0
  7  8  1  0  0  0  0
M  CHG  2   5   1  10  -1
M  END
$$$$
O=C1CC[C@H]2C(=C1)C(=C[C@@H]1[C@@H]2CC[C@]2([C@H]1CC[C@H]2O)C)C
 OpenBabel07182308452D

 22 25  0  0  1  0  0  0  0  0999 V2000
    1.4978   -1.6248    0.0000 C   0  0  0  0  0  0  0  0  0  0  0  0
    1.7781   -0.8489    0.0000 C   0  0  0  0  0  0  0  0  0  0  0  0
    2.5902   -0.7037    0.0000 C   0  0  0  0  0  0  0  0  0  0  0  0
    2.8705    0.0722    0.0000 C   0  0  2  0  0  0  0  0  0  0  0  0
    2.3387    0.7029    0.0000 C   0  0  2  0  0  0  0  0  0  0  0  0
    2.6190    1.4789    0.0000 C   0  0  0  0  0  0  0  0  0  0  0  0
    3.4311    1.6241    0.0000 C   0  0  0  0  0  0  0  0  0  0  0  0
    3.9629    0.9934    0.0000 C   0  0  1  0  0  0  0  0  0  0  0  0
    3.6826    0.2174    0.0000 C   0  0  1  0  0  0  0  0  0  0  0  0
    4.3340   -0.2889    0.0000 C   0  0  0  0  0  0  0  0  0  0  0  0
    5.0168    0.1741    0.0000 C   0  0  0  0  0  0  0  0  0  0  0  0
    4.7875    0.9666    0.0000 C   0  0  1  0  0  0  0  0  0  0  0  0
    4.9089    1.7826    0.0000 O   0  0  0  0  0  0  0  0  0  0  0  0
    4.3228    1.7357    0.0000 C   0  0  0  0  0  0  0  0  0  0  0  0
    1.5266    0.5577    0.0000 C   0  0  2  0  0  0  0  0  0  0  0  0
    1.2463   -0.2182    0.0000 C   0  0  0  0  0  0  0  0  0  0  0  0
    0.4342   -0.3634    0.0000 C   0  0  0  0  0  0  0  0  0  0  0  0
   -0.0976    0.2673    0.0000 C   0  0  0  0  0  0  0  0  0  0  0  0
   -0.9098    0.1221    0.0000 O   0  0  0  0  0  0  0  0  0  0  0  0
    0.1827    1.0432    0.0000 C   0  0  0  0  0  0  0  0  0  0  0  0
    0.9948    1.1884    0.0000 C   0  0  0  0  0  0  0  0  0  0  0  0
    5.8112    2.1387    0.0000 H   0  0  0  0  0  0  0  0  0  0  0  0
  1  2  1  0  0  0  0
  2  3  2  0  0  0  0
  2 16  1  0  0  0  0
  4  3  1  6  0  0  0
  4  5  1  0  0  0  0
  4  9  1  0  0  0  0
  5  6  1  1  0  0  0
  5 15  1  0  0  0  0
  6  7  1  0  0  0  0
  7  8  1  0  0  0  0
  8 14  1  1  0  0  0
  9  8  1  1  0  0  0
  9 10  1  0  0  0  0
 10 11  1  0  0  0  0
 11 12  1  0  0  0  0
 12  8  1  6  0  0  0
 12 13  1  0  0  0  0
 13 22  1  0  0  0  0
 15 16  1  0  0  0  0
 15 21  1  6  0  0  0
 16 17  2  0  0  0  0
 17 18  1  0  0  0  0
 18 19  2  0  0  0  0
 18 20  1  0  0  0  0
 20 21  1  0  0  0  0
M  END
$$$$
C[C@@H]1Cn2c(O1)ncc2
 OpenBabel07182308452D

  9 10  0  0  0  0  0  0  0  0999 V2000
   -1.4255   -2.8057    0.0000 O   0  0  0  0  0  0  0  0  0  0  0  0
   -1.8467   -4.0693    0.0000 N   0  0  0  0  0  0  0  0  0  0  0  0
   -2.9219   -3.2712    0.0000 N   0  0  0  0  0  0  0  0  0  0  0  0
   -0.7604   -3.3045    0.0000 C   0  0  1  0  0  0  0  0  0  0  0  0
   -2.1017   -3.2934    0.0000 C   0  0  0  0  0  0  0  0  0  0  0  0
   -1.0154   -4.0804    0.0000 C   0  0  0  0  0  0  0  0  0  0  0  0
   -3.1769   -4.0693    0.0000 C   0  0  0  0  0  0  0  0  0  0  0  0
   -2.5118   -4.5460    0.0000 C   0  0  0  0  0  0  0  0  0  0  0  0
   -0.2814   -3.7584    0.0000 C   0  0  0  0  0  0  0  0  0  0  0  0
  1  4  1  0  0  0  0
  2  8  1  0  0  0  0
  3  5  2  0  0  0  0
  4  6  1  0  0  0  0
  4  9  1  6  0  0  0
  5  1  1  0  0  0  0
  5  2  1  0  0  0  0
  6  2  1  0  0  0  0
  7  3  1  0  0  0  0
  8  7  2  0  0  0  0
M  END
$$$$
OC1CCNCC1
 OpenBabel07182308452D

  7  7  0  0  0  0  0  0  0  0999 V2000
    0.0629    3.6906    0.0000 O   0  0  0  0  0  0  0  0  0  0  0  0
   -0.4839    1.2763    0.0000 N   0  0  0  0  0  0  0  0  0  0  0  0
   -0.1205    2.8859    0.0000 C   0  0  0  0  0  0  0  0  0  0  0  0
   -1.0900    1.8361    0.0000 C   0  0  0  0  0  0  0  0  0  0  0  0
    0.3037    1.5213    0.0000 C   0  0  0  0  0  0  0  0  0  0  0  0
   -0.9082    2.6408    0.0000 C   0  0  0  0  0  0  0  0  0  0  0  0
    0.4855    2.3261    0.0000 C   0  0  0  0  0  0  0  0  0  0  0  0
  1  3  1  0  0  0  0
  2  4  1  0  0  0  0
  3  7  1  0  0  0  0
  4  6  1  0  0  0  0
  5  2  1  0  0  0  0
  6  3  1  0  0  0  0
  7  5  1  0  0  0  0
M  END
$$$$
OC1O[C@@H]2O[C@@]3(C)CC[C@@H]4[C@]2([C@H]([C@H]1C)CC[C@H]4C)OO3
 OpenBabel07182308452D

 27 30  0  0  0  0  0  0  0  0999 V2000
    1.3711   -1.7267    0.0000 C   0  0  0  0  0  0  0  0  0  0  0  0
   -1.8241   -0.6266    0.0000 C   0  0  0  0  0  0  0  0  0  0  0  0
    2.3234    1.3619    0.0000 C   0  0  0  0  0  0  0  0  0  0  0  0
   -0.0051   -1.7038    0.0000 C   0  0  0  0  0  0  0  0  0  0  0  0
   -0.5560   -1.0981    0.0000 C   0  0  0  0  0  0  0  0  0  0  0  0
    1.6502   -0.4427    0.0000 C   0  0  0  0  0  0  0  0  0  0  0  0
    2.1283    0.2307    0.0000 C   0  0  0  0  0  0  0  0  0  0  0  0
    0.6980   -1.2822    0.0000 C   0  0  2  0  0  0  0  0  0  0  0  0
   -1.2762   -0.0346    0.0000 C   0  0  2  0  0  0  0  0  0  0  0  0
    0.8117   -0.4538    0.0000 C   0  0  1  0  0  0  0  0  0  0  0  0
   -0.4621   -0.2620    0.0000 C   0  0  1  0  0  0  0  0  0  0  0  0
   -1.5583    0.7377    0.0000 C   0  0  3  0  0  0  0  0  0  0  0  0
   -0.0722    0.9205    0.0000 C   0  0  2  0  0  0  0  0  0  0  0  0
    1.6533    0.9130    0.0000 C   0  0  1  0  0  0  0  0  0  0  0  0
    0.2636    0.2261    0.0000 C   0  0  1  0  0  0  0  0  0  0  0  0
   -2.3234    0.9934    0.0000 O   0  0  0  0  0  0  0  0  0  0  0  0
   -0.8688    1.1852    0.0000 O   0  0  0  0  0  0  0  0  0  0  0  0
    0.8397    0.7048    0.0000 O   0  0  0  0  0  0  0  0  0  0  0  0
    1.2069    1.6058    0.0000 O   0  0  0  0  0  0  0  0  0  0  0  0
    0.4968    1.1557    0.0000 O   0  0  0  0  0  0  0  0  0  0  0  0
    1.4328   -0.9494    0.0000 H   0  0  0  0  0  0  0  0  0  0  0  0
   -1.0565   -0.8108    0.0000 H   0  0  0  0  0  0  0  0  0  0  0  0
    1.1551    0.2761    0.0000 H   0  0  0  0  0  0  0  0  0  0  0  0
   -0.5905    0.5340    0.0000 H   0  0  0  0  0  0  0  0  0  0  0  0
   -1.6601    1.5379    0.0000 H   0  0  0  0  0  0  0  0  0  0  0  0
   -0.1007    1.7267    0.0000 H   0  0  0  0  0  0  0  0  0  0  0  0
   -2.5171    1.9439    0.0000 H   0  0  0  0  0  0  0  0  0  0  0  0
  5  4  1  0  0  0  0
  7  6  1  0  0  0  0
  8  1  1  0  0  0  0
  8  4  1  0  0  0  0
  8 10  1  6  0  0  0
  8 21  1  0  0  0  0
  9  2  1  0  0  0  0
  9 11  1  1  0  0  0
  9 12  1  0  0  0  0
  9 22  1  0  0  0  0
 10  6  1  0  0  0  0
 10 15  1  1  0  0  0
 10 23  1  0  0  0  0
 11  5  1  0  0  0  0
 11 15  1  1  0  0  0
 11 24  1  0  0  0  0
 13 15  1  1  0  0  0
 13 17  1  0  0  0  0
 13 18  1  0  0  0  0
 13 26  1  0  0  0  0
 14  3  1  1  0  0  0
 14  7  1  0  0  0  0
 14 18  1  0  0  0  0
 14 19  1  0  0  0  0
 15 20  1  6  0  0  0
 16 12  1  0  0  0  0
 16 27  1  0  0  0  0
 17 12  1  0  0  0  0
 20 19  1  0  0  0  0
 25 12  1  0  0  0  0
M  END
$$$$
Nc1cnccc1N
 OpenBabel07182308452D

 12 12  0  0  0  0  0  0  0  0999 V2000
   -0.3599   -0.4200    0.0000 C   0  0  0  0  0  0  0  0  0  0  0  0
    0.3517   -0.0048    0.0000 C   0  0  0  0  0  0  0  0  0  0  0  0
   -1.0735   -0.0048    0.0000 C   0  0  0  0  0  0  0  0  0  0  0  0
   -0.3599   -1.2409    0.0000 N   0  0  0  0  0  0  0  0  0  0  0  0
    0.3517    0.8276    0.0000 C   0  0  0  0  0  0  0  0  0  0  0  0
    1.0735   -0.4283    0.0000 N   0  0  0  0  0  0  0  0  0  0  0  0
   -1.0735    0.8195    0.0000 C   0  0  0  0  0  0  0  0  0  0  0  0
   -0.3599    1.2409    0.0000 N   0  0  0  0  0  0  0  0  0  0  0  0
   -1.2125   -1.7331    0.0000 H   0  0  0  0  0  0  0  0  0  0  0  0
    0.4927   -1.7331    0.0000 H   0  0  0  0  0  0  0  0  0  0  0  0
    1.0666   -1.4128    0.0000 H   0  0  0  0  0  0  0  0  0  0  0  0
    1.9295    0.0580    0.0000 H   0  0  0  0  0  0  0  0  0  0  0  0
  1  2  1  0  0  0  0
  1  3  2  0  0  0  0
  1  4  1  0  0  0  0
  2  5  2  0  0  0  0
  2  6  1  0  0  0  0
  3  7  1  0  0  0  0
  4  9  1  0  0  0  0
  4 10  1  0  0  0  0
  5  8  1  0  0  0  0
  6 11  1  0  0  0  0
  6 12  1  0  0  0  0
  7  8  2  0  0  0  0
M  END
$$$$
C1C[C@H]2CCc3c(CN(C1)C2)c1ccccc1[nH]3
 OpenBabel07182308452D

 19 22  0  0  1  0  0  0  0  0999 V2000
    2.2871    0.3393    0.0000 C   0  0  0  0  0  0  0  0  0  0  0  0
    1.8413    1.0698    0.0000 C   0  0  0  0  0  0  0  0  0  0  0  0
    1.9744    1.9327    0.0000 C   0  0  2  0  0  0  0  0  0  0  0  0
    1.8379    2.7882    0.0000 C   0  0  0  0  0  0  0  0  0  0  0  0
    2.4488    3.3726    0.0000 C   0  0  0  0  0  0  0  0  0  0  0  0
    3.2410    3.0777    0.0000 C   0  0  0  0  0  0  0  0  0  0  0  0
    3.4542    2.2380    0.0000 N   0  0  1  0  0  0  0  0  0  0  0  0
    2.7278    2.0200    0.0000 C   0  0  0  0  0  0  0  0  0  0  0  0
    3.9179    1.4982    0.0000 C   0  0  0  0  0  0  0  0  0  0  0  0
    3.7976    0.6509    0.0000 C   0  0  0  0  0  0  0  0  0  0  0  0
    3.1237    0.1751    0.0000 C   0  0  0  0  0  0  0  0  0  0  0  0
    3.3680   -0.6129    0.0000 N   0  0  0  0  0  0  0  0  0  0  0  0
    4.1929   -0.6241    0.0000 C   0  0  0  0  0  0  0  0  0  0  0  0
    4.4585    0.1570    0.0000 C   0  0  0  0  0  0  0  0  0  0  0  0
    5.2677    0.3176    0.0000 C   0  0  0  0  0  0  0  0  0  0  0  0
    5.8114   -0.3029    0.0000 C   0  0  0  0  0  0  0  0  0  0  0  0
    5.5458   -1.0840    0.0000 C   0  0  0  0  0  0  0  0  0  0  0  0
    4.7366   -1.2446    0.0000 C   0  0  0  0  0  0  0  0  0  0  0  0
    2.7786   -1.4015    0.0000 H   0  0  0  0  0  0  0  0  0  0  0  0
  1  2  1  0  0  0  0
  1 11  1  0  0  0  0
  3  2  1  6  0  0  0
  3  4  1  0  0  0  0
  3  8  1  0  0  0  0
  4  5  1  0  0  0  0
  5  6  1  0  0  0  0
  7  6  1  6  0  0  0
  7  8  1  0  0  0  0
  7  9  1  0  0  0  0
  9 10  1  0  0  0  0
 10 11  2  0  0  0  0
 10 14  1  0  0  0  0
 11 12  1  0  0  0  0
 12 13  1  0  0  0  0
 12 19  1  0  0  0  0
 13 14  1  0  0  0  0
 13 18  2  0  0  0  0
 14 15  2  0  0  0  0
 15 16  1  0  0  0  0
 16 17  2  0  0  0  0
 17 18  1  0  0  0  0
M  END
$$$$
Nc1ccc(c(c1)C)O
 OpenBabel07182308452D

 10 10  0  0  0  0  0  0  0  0999 V2000
   -0.0000    3.3000    0.0000 C   0  0  0  0  0  0  0  0  0  0  0  0
   -0.0000    2.4750    0.0000 C   0  0  0  0  0  0  0  0  0  0  0  0
    0.7145    2.0625    0.0000 C   0  0  0  0  0  0  0  0  0  0  0  0
    0.7145    1.2375    0.0000 C   0  0  0  0  0  0  0  0  0  0  0  0
    0.0000    0.8250    0.0000 C   0  0  0  0  0  0  0  0  0  0  0  0
   -0.7145    1.2375    0.0000 C   0  0  0  0  0  0  0  0  0  0  0  0
   -0.7145    2.0625    0.0000 C   0  0  0  0  0  0  0  0  0  0  0  0
   -1.4289    2.4750    0.0000 O   0  0  0  0  0  0  0  0  0  0  0  0
    1.4289    0.8250    0.0000 N   0  0  0  0  0  0  0  0  0  0  0  0
    2.2815    1.3172    0.0000 H   0  0  0  0  0  0  0  0  0  0  0  0
  1  2  1  0  0  0  0
  2  3  2  0  0  0  0
  2  7  1  0  0  0  0
  3  4  1  0  0  0  0
  4  5  2  0  0  0  0
  4  9  1  0  0  0  0
  5  6  1  0  0  0  0
  6  7  2  0  0  0  0
  7  8  1  0  0  0  0
  9 10  1  0  0  0  0
M  END
$$$$
c1ccc2n(c1)ncn2
 OpenBabel07182308452D

  9 10  0  0  0  0  0  0  0  0999 V2000
   -2.1434    2.0625    0.0000 C   0  0  0  0  0  0  0  0  0  0  0  0
   -2.1434    1.2375    0.0000 C   0  0  0  0  0  0  0  0  0  0  0  0
   -2.8579    0.8250    0.0000 C   0  0  0  0  0  0  0  0  0  0  0  0
   -3.5724    1.2375    0.0000 N   0  0  0  0  0  0  0  0  0  0  0  0
   -3.5724    2.0625    0.0000 C   0  0  0  0  0  0  0  0  0  0  0  0
   -2.8579    2.4750    0.0000 C   0  0  0  0  0  0  0  0  0  0  0  0
   -4.3570    2.3174    0.0000 N   0  0  0  0  0  0  0  0  0  0  0  0
   -4.8419    1.6500    0.0000 C   0  0  0  0  0  0  0  0  0  0  0  0
   -4.3570    0.9826    0.0000 N   0  0  0  0  0  0  0  0  0  0  0  0
  1  2  1  0  0  0  0
  1  6  2  0  0  0  0
  2  3  2  0  0  0  0
  3  4  1  0  0  0  0
  4  5  1  0  0  0  0
  4  9  1  0  0  0  0
  5  6  1  0  0  0  0
  5  7  2  0  0  0  0
  7  8  1  0  0  0  0
  8  9  2  0  0  0  0
M  END
$$$$
Nc1ccc2c(c1)cncn2
 OpenBabel07182308452D

 12 13  0  0  0  0  0  0  0  0999 V2000
    1.4289    0.0000    0.0000 C   0  0  0  0  0  0  0  0  0  0  0  0
    2.1434   -0.4125    0.0000 C   0  0  0  0  0  0  0  0  0  0  0  0
    2.8579    0.0000    0.0000 C   0  0  0  0  0  0  0  0  0  0  0  0
    3.5724   -0.4125    0.0000 C   0  0  0  0  0  0  0  0  0  0  0  0
    3.5724   -1.2375    0.0000 C   0  0  0  0  0  0  0  0  0  0  0  0
    2.8579   -1.6500    0.0000 C   0  0  0  0  0  0  0  0  0  0  0  0
    2.1434   -1.2375    0.0000 C   0  0  0  0  0  0  0  0  0  0  0  0
    1.4289   -1.6500    0.0000 N   0  0  0  0  0  0  0  0  0  0  0  0
    0.7145   -1.2375    0.0000 C   0  0  0  0  0  0  0  0  0  0  0  0
    0.7145   -0.4125    0.0000 N   0  0  0  0  0  0  0  0  0  0  0  0
    4.2868   -0.0000    0.0000 N   0  0  0  0  0  0  0  0  0  0  0  0
    4.2868    0.9845    0.0000 H   0  0  0  0  0  0  0  0  0  0  0  0
  1  2  1  0  0  0  0
  1 10  2  0  0  0  0
  2  3  2  0  0  0  0
  2  7  1  0  0  0  0
  3  4  1  0  0  0  0
  4  5  2  0  0  0  0
  4 11  1  0  0  0  0
  5  6  1  0  0  0  0
  6  7  2  0  0  0  0
  7  8  1  0  0  0  0
  8  9  2  0  0  0  0
  9 10  1  0  0  0  0
 11 12  1  0  0  0  0
M  END
$$$$
CC1(C)COC=N1
 OpenBabel07182308452D

  7  7  0  0  0  0  0  0  0  0999 V2000
    5.0013   -0.4125    0.0000 C   0  0  0  0  0  0  0  0  0  0  0  0
    5.7550   -0.0769    0.0000 N   0  0  0  0  0  0  0  0  0  0  0  0
    6.3070   -0.6900    0.0000 C   0  0  0  0  0  0  0  0  0  0  0  0
    5.8945   -1.4045    0.0000 C   0  0  0  0  0  0  0  0  0  0  0  0
    5.0875   -1.2330    0.0000 O   0  0  0  0  0  0  0  0  0  0  0  0
    6.9795   -0.2121    0.0000 C   0  0  0  0  0  0  0  0  0  0  0  0
    7.0642   -1.0177    0.0000 C   0  0  0  0  0  0  0  0  0  0  0  0
  1  2  2  0  0  0  0
  1  5  1  0  0  0  0
  2  3  1  0  0  0  0
  3  4  1  0  0  0  0
  3  6  1  0  0  0  0
  3  7  1  0  0  0  0
  4  5  1  0  0  0  0
M  END
$$$$
O=c1cc(C)c2c([nH]1)cccc2
 OpenBabel07182308452D

 13 14  0  0  0  0  0  0  0  0999 V2000
    3.7099    0.0058    0.0000 N   0  0  0  0  0  0  0  0  0  0  0  0
    3.2986   -0.7093    0.0000 C   0  0  0  0  0  0  0  0  0  0  0  0
    2.4736   -0.7107    0.0000 C   0  0  0  0  0  0  0  0  0  0  0  0
    2.0599    0.0029    0.0000 C   0  0  0  0  0  0  0  0  0  0  0  0
    2.4711    0.7181    0.0000 C   0  0  0  0  0  0  0  0  0  0  0  0
    2.0573    1.4318    0.0000 C   0  0  0  0  0  0  0  0  0  0  0  0
    2.4686    2.1470    0.0000 C   0  0  0  0  0  0  0  0  0  0  0  0
    3.2936    2.1485    0.0000 C   0  0  0  0  0  0  0  0  0  0  0  0
    3.7073    1.4348    0.0000 C   0  0  0  0  0  0  0  0  0  0  0  0
    3.2961    0.7196    0.0000 C   0  0  0  0  0  0  0  0  0  0  0  0
    1.2349    0.0014    0.0000 C   0  0  0  0  0  0  0  0  0  0  0  0
    3.7124   -1.4230    0.0000 O   0  0  0  0  0  0  0  0  0  0  0  0
    4.6944    0.0075    0.0000 H   0  0  0  0  0  0  0  0  0  0  0  0
  1  2  1  0  0  0  0
  1 10  1  0  0  0  0
  1 13  1  0  0  0  0
  2  3  1  0  0  0  0
  2 12  2  0  0  0  0
  3  4  2  0  0  0  0
  4  5  1  0  0  0  0
  4 11  1  0  0  0  0
  5  6  1  0  0  0  0
  5 10  2  0  0  0  0
  6  7  2  0  0  0  0
  7  8  1  0  0  0  0
  8  9  2  0  0  0  0
  9 10  1  0  0  0  0
M  END
$$$$
Nc1ccc2c(c1F)ncn2C
 OpenBabel07182308452D

 13 14  0  0  0  0  0  0  0  0999 V2000
   -0.7970    1.6536    0.0000 C   0  0  0  0  0  0  0  0  0  0  0  0
   -0.7900    0.8215    0.0000 C   0  0  0  0  0  0  0  0  0  0  0  0
   -0.0769    0.4090    0.0000 N   0  0  0  0  0  0  0  0  0  0  0  0
   -1.5102    0.4090    0.0000 C   0  0  0  0  0  0  0  0  0  0  0  0
   -1.5102   -0.4159    0.0000 F   0  0  0  0  0  0  0  0  0  0  0  0
   -2.2234    0.8215    0.0000 C   0  0  0  0  0  0  0  0  0  0  0  0
   -2.2234    1.6465    0.0000 C   0  0  0  0  0  0  0  0  0  0  0  0
   -3.0135    1.9053    0.0000 N   0  0  0  0  0  0  0  0  0  0  0  0
   -3.2651    2.6883    0.0000 C   0  0  0  0  0  0  0  0  0  0  0  0
   -3.4959    1.2341    0.0000 C   0  0  0  0  0  0  0  0  0  0  0  0
   -3.0135    0.5698    0.0000 N   0  0  0  0  0  0  0  0  0  0  0  0
   -1.5102    2.0661    0.0000 C   0  0  0  0  0  0  0  0  0  0  0  0
    0.7759    0.9009    0.0000 H   0  0  0  0  0  0  0  0  0  0  0  0
  1  2  2  0  0  0  0
  1 12  1  0  0  0  0
  2  3  1  0  0  0  0
  2  4  1  0  0  0  0
  3 13  1  0  0  0  0
  4  5  1  0  0  0  0
  4  6  2  0  0  0  0
  6  7  1  0  0  0  0
  6 11  1  0  0  0  0
  7  8  1  0  0  0  0
  7 12  2  0  0  0  0
  8  9  1  0  0  0  0
  8 10  1  0  0  0  0
 10 11  2  0  0  0  0
M  END
$$$$
Clc1cccc(c1)Br
 OpenBabel07182308452D

  8  8  0  0  0  0  0  0  0  0999 V2000
   -0.0769   -0.4159    0.0000 C   0  0  0  0  0  0  0  0  0  0  0  0
    0.6363   -0.8285    0.0000 C   0  0  0  0  0  0  0  0  0  0  0  0
    1.3494   -0.4159    0.0000 Cl  0  0  0  0  0  0  0  0  0  0  0  0
    0.6363   -1.6536    0.0000 C   0  0  0  0  0  0  0  0  0  0  0  0
   -0.0769   -2.0660    0.0000 C   0  0  0  0  0  0  0  0  0  0  0  0
   -0.0769   -2.8911    0.0000 Br  0  0  0  0  0  0  0  0  0  0  0  0
   -0.7900   -1.6536    0.0000 C   0  0  0  0  0  0  0  0  0  0  0  0
   -0.7900   -0.8285    0.0000 C   0  0  0  0  0  0  0  0  0  0  0  0
  1  2  2  0  0  0  0
  1  8  1  0  0  0  0
  2  3  1  0  0  0  0
  2  4  1  0  0  0  0
  4  5  2  0  0  0  0
  5  6  1  0  0  0  0
  5  7  1  0  0  0  0
  7  8  2  0  0  0  0
M  END
$$$$
OC1=CC[C@@]2([C@@]34[C@H]1Oc1c4c(C[C@H]2N(CC3)C)ccc1O)O
 OpenBabel07182308452D

 27 31  0  0  0  0  0  0  0  0999 V2000
    0.8243   -3.3477    0.0000 C   0  0  0  0  0  0  0  0  0  0  0  0
    0.4256   -4.0599    0.0000 C   0  0  0  0  0  0  0  0  0  0  0  0
    1.6619   -3.3432    0.0000 C   0  0  0  0  0  0  0  0  0  0  0  0
    2.0689   -2.6270    0.0000 C   0  0  0  0  0  0  0  0  0  0  0  0
    2.8808   -2.5715    0.0000 C   0  0  1  0  0  0  0  0  0  0  0  0
    3.4827   -2.0294    0.0000 N   0  0  0  0  0  0  0  0  0  0  0  0
    4.1543   -3.3485    0.0000 C   0  0  0  0  0  0  0  0  0  0  0  0
    3.3027   -3.3358    0.0000 C   0  0  2  0  0  0  0  0  0  0  0  0
    3.6706   -3.8606    0.0000 C   0  0  0  0  0  0  0  0  0  0  0  0
    4.0627   -2.6045    0.0000 C   0  0  0  0  0  0  0  0  0  0  0  0
    2.9176   -4.0689    0.0000 C   0  0  2  0  0  0  0  0  0  0  0  0
    3.2722   -4.7908    0.0000 C   0  0  2  0  0  0  0  0  0  0  0  0
    4.1572   -4.7768    0.0000 C   0  0  0  0  0  0  0  0  0  0  0  0
    4.5611   -4.0575    0.0000 C   0  0  0  0  0  0  0  0  0  0  0  0
    4.6677   -5.4861    0.0000 O   0  0  0  0  0  0  0  0  0  0  0  0
    3.4827   -5.5646    0.0000 H   0  0  0  0  0  0  0  0  0  0  0  0
    2.0742   -4.0634    0.0000 C   0  0  0  0  0  0  0  0  0  0  0  0
    2.4616   -5.1457    0.0000 O   0  0  0  0  0  0  0  0  0  0  0  0
    1.6645   -4.7758    0.0000 C   0  0  0  0  0  0  0  0  0  0  0  0
    0.8343   -4.7819    0.0000 C   0  0  0  0  0  0  0  0  0  0  0  0
    0.2749   -5.4861    0.0000 O   0  0  0  0  0  0  0  0  0  0  0  0
    3.4832   -1.2157    0.0000 C   0  0  0  0  0  0  0  0  0  0  0  0
    2.5794   -1.8461    0.0000 H   0  0  0  0  0  0  0  0  0  0  0  0
    2.4777   -3.3358    0.0000 O   0  0  0  0  0  0  0  0  0  0  0  0
    4.2828   -6.3404    0.0000 H   0  0  0  0  0  0  0  0  0  0  0  0
   -0.6519   -5.3482    0.0000 H   0  0  0  0  0  0  0  0  0  0  0  0
    1.9927   -2.4958    0.0000 H   0  0  0  0  0  0  0  0  0  0  0  0
  1  2  1  0  0  0  0
  1  3  2  0  0  0  0
  2 20  2  0  0  0  0
  3  4  1  0  0  0  0
  3 17  1  0  0  0  0
  4  5  1  0  0  0  0
  5  6  1  0  0  0  0
  5 23  1  0  0  0  0
  5  8  1  6  0  0  0
  6 22  1  0  0  0  0
  6 10  1  0  0  0  0
  7  8  1  0  0  0  0
  8 11  1  6  0  0  0
  8 24  1  0  0  0  0
  9 10  1  0  0  0  0
 11  9  1  0  0  0  0
 11 12  1  6  0  0  0
 12 13  1  0  0  0  0
 12 16  1  1  0  0  0
 12 18  1  0  0  0  0
 13 14  2  0  0  0  0
 14  7  1  0  0  0  0
 15 13  1  0  0  0  0
 15 25  1  0  0  0  0
 17 11  1  0  0  0  0
 18 19  1  0  0  0  0
 19 17  2  0  0  0  0
 20 19  1  0  0  0  0
 20 21  1  0  0  0  0
 21 26  1  0  0  0  0
 24 27  1  0  0  0  0
M  END
$$$$
Oc1ccc2cc1COC/C=C/COCc1cc(c3nc(N2)ncc3)ccc1
 OpenBabel07182308452D

 29 32  0  0  0  0  0  0  0  0999 V2000
   -0.6727   -1.0216    0.0000 C   0  0  0  0  0  0  0  0  0  0  0  0
   -0.6727   -0.1891    0.0000 C   0  0  0  0  0  0  0  0  0  0  0  0
   -0.6643    1.4841    0.0000 C   0  0  0  0  0  0  0  0  0  0  0  0
    0.0588    1.0637    0.0000 C   0  0  0  0  0  0  0  0  0  0  0  0
    0.0588    0.2312    0.0000 O   0  0  0  0  0  0  0  0  0  0  0  0
   -2.0601    2.2829    0.0000 O   0  0  0  0  0  0  0  0  0  0  0  0
   -1.3453    2.6950    0.0000 C   0  0  0  0  0  0  0  0  0  0  0  0
   -0.6643    2.3166    0.0000 C   0  0  0  0  0  0  0  0  0  0  0  0
   -2.0516    1.4336    0.0000 C   0  0  0  0  0  0  0  0  0  0  0  0
   -3.4980   -0.2060    0.0000 C   0  0  0  0  0  0  0  0  0  0  0  0
   -2.7748    0.1892    0.0000 C   0  0  0  0  0  0  0  0  0  0  0  0
   -2.7665    1.0132    0.0000 C   0  0  0  0  0  0  0  0  0  0  0  0
   -3.4644    1.4420    0.0000 C   0  0  0  0  0  0  0  0  0  0  0  0
   -4.1875    1.0385    0.0000 C   0  0  0  0  0  0  0  0  0  0  0  0
   -4.2043    0.2143    0.0000 C   0  0  0  0  0  0  0  0  0  0  0  0
   -2.8337   -1.4253    0.0000 N   0  0  0  0  0  0  0  0  0  0  0  0
   -3.4980   -1.0300    0.0000 C   0  0  0  0  0  0  0  0  0  0  0  0
   -4.1706   -1.4000    0.0000 C   0  0  0  0  0  0  0  0  0  0  0  0
   -4.1875   -2.1736    0.0000 C   0  0  0  0  0  0  0  0  0  0  0  0
   -3.5232   -2.5688    0.0000 N   0  0  0  0  0  0  0  0  0  0  0  0
   -2.8505   -2.1988    0.0000 C   0  0  0  0  0  0  0  0  0  0  0  0
   -1.3958   -1.4336    0.0000 C   0  0  0  0  0  0  0  0  0  0  0  0
   -1.4042   -2.2745    0.0000 C   0  0  0  0  0  0  0  0  0  0  0  0
   -0.6810   -2.6950    0.0000 C   0  0  0  0  0  0  0  0  0  0  0  0
    0.0504   -2.2745    0.0000 C   0  0  0  0  0  0  0  0  0  0  0  0
    0.0504   -1.4420    0.0000 C   0  0  0  0  0  0  0  0  0  0  0  0
   -2.1189   -2.6782    0.0000 N   0  0  0  0  0  0  0  0  0  0  0  0
    0.7651   -1.0300    0.0000 O   0  0  0  0  0  0  0  0  0  0  0  0
   -2.1513   -3.6622    0.0000 H   0  0  0  0  0  0  0  0  0  0  0  0
  1  2  1  0  0  0  0
  1 22  2  0  0  0  0
  1 26  1  0  0  0  0
  2  5  1  0  0  0  0
  3  4  1  0  0  0  0
  3  8  2  0  0  0  0
  4  5  1  0  0  0  0
  6  7  1  0  0  0  0
  6  9  1  0  0  0  0
  7  8  1  0  0  0  0
  9 12  1  0  0  0  0
 10 11  2  0  0  0  0
 10 17  1  0  0  0  0
 10 15  1  0  0  0  0
 11 12  1  0  0  0  0
 12 13  2  0  0  0  0
 13 14  1  0  0  0  0
 14 15  2  0  0  0  0
 16 21  1  0  0  0  0
 16 17  2  0  0  0  0
 17 18  1  0  0  0  0
 18 19  2  0  0  0  0
 19 20  1  0  0  0  0
 20 21  2  0  0  0  0
 21 27  1  0  0  0  0
 22 23  1  0  0  0  0
 23 24  2  0  0  0  0
 23 27  1  0  0  0  0
 24 25  1  0  0  0  0
 25 26  2  0  0  0  0
 26 28  1  0  0  0  0
 27 29  1  0  0  0  0
M  END
$$$$
C[C@@H]1NC(=O)[C@@H](C)NC(=O)[C@@H](N)CSSCCNC(=O)[C@@H](NC(=O)[C@@H](NC(=O)[C@H](NC1=O)C)C)C
 OpenBabel07182308452D

 42 42  0  0  0  0  0  0  0  0999 V2000
   -2.9099   -0.5199    0.0000 S   0  0  0  0  0  0  0  0  0  0  0  0
   -2.7393    0.2871    0.0000 S   0  0  0  0  0  0  0  0  0  0  0  0
    1.1562   -4.4464    0.0000 O   0  0  0  0  0  0  0  0  0  0  0  0
    3.5462   -2.5065    0.0000 O   0  0  0  0  0  0  0  0  0  0  0  0
   -1.8856   -4.0273    0.0000 O   0  0  0  0  0  0  0  0  0  0  0  0
    3.7636    0.5665    0.0000 O   0  0  0  0  0  0  0  0  0  0  0  0
    1.6529    2.8169    0.0000 O   0  0  0  0  0  0  0  0  0  0  0  0
   -1.4201    2.8169    0.0000 O   0  0  0  0  0  0  0  0  0  0  0  0
    0.1164   -3.0341    0.0000 N   0  0  0  0  0  0  0  0  0  0  0  0
    1.8080   -2.4754    0.0000 N   0  0  0  0  0  0  0  0  0  0  0  0
    2.6617   -0.5199    0.0000 N   0  0  0  0  0  0  0  0  0  0  0  0
   -1.6994   -2.1960    0.0000 N   0  0  0  0  0  0  0  0  0  0  0  0
    1.4666    1.2183    0.0000 N   0  0  0  0  0  0  0  0  0  0  0  0
   -0.3802    1.7925    0.0000 N   0  0  0  0  0  0  0  0  0  0  0  0
   -2.3202    2.2736    0.0000 N   0  0  0  0  0  0  0  0  0  0  0  0
    1.6994   -3.3289    0.0000 C   0  0  1  0  0  0  0  0  0  0  0  0
   -0.7061   -3.6549    0.0000 C   0  0  1  0  0  0  0  0  0  0  0  0
    2.1184   -4.0273    0.0000 C   0  0  0  0  0  0  0  0  0  0  0  0
   -0.9233   -4.4464    0.0000 C   0  0  0  0  0  0  0  0  0  0  0  0
    3.0961   -1.3424    0.0000 C   0  0  1  0  0  0  0  0  0  0  0  0
    0.9389   -3.6549    0.0000 C   0  0  0  0  0  0  0  0  0  0  0  0
    2.8168   -2.1184    0.0000 C   0  0  0  0  0  0  0  0  0  0  0  0
    3.9033   -1.5132    0.0000 C   0  0  0  0  0  0  0  0  0  0  0  0
    2.5996    1.0165    0.0000 C   0  0  2  0  0  0  0  0  0  0  0  0
   -1.4666   -3.3289    0.0000 C   0  0  0  0  0  0  0  0  0  0  0  0
    2.9720    0.2871    0.0000 C   0  0  0  0  0  0  0  0  0  0  0  0
    3.2669    1.4977    0.0000 C   0  0  0  0  0  0  0  0  0  0  0  0
   -2.5840   -2.1184    0.0000 C   0  0  0  0  0  0  0  0  0  0  0  0
    0.5354    2.2892    0.0000 C   0  0  1  0  0  0  0  0  0  0  0  0
   -1.8080    1.6218    0.0000 C   0  0  2  0  0  0  0  0  0  0  0  0
    1.3269    2.0563    0.0000 C   0  0  0  0  0  0  0  0  0  0  0  0
   -2.3667   -1.2182    0.0000 C   0  0  0  0  0  0  0  0  0  0  0  0
   -1.0941    2.0563    0.0000 C   0  0  0  0  0  0  0  0  0  0  0  0
   -1.8856    0.7837    0.0000 C   0  0  0  0  0  0  0  0  0  0  0  0
    0.6440    3.0962    0.0000 C   0  0  0  0  0  0  0  0  0  0  0  0
   -2.1339    2.7548    0.0000 H   0  0  0  0  0  0  0  0  0  0  0  0
    0.1164   -2.0496    0.0000 H   0  0  0  0  0  0  0  0  0  0  0  0
    1.0416   -1.8574    0.0000 H   0  0  0  0  0  0  0  0  0  0  0  0
    1.6789   -0.5784    0.0000 H   0  0  0  0  0  0  0  0  0  0  0  0
   -1.0445   -1.4609    0.0000 H   0  0  0  0  0  0  0  0  0  0  0  0
    0.7666    0.5260    0.0000 H   0  0  0  0  0  0  0  0  0  0  0  0
   -0.3098    0.8105    0.0000 H   0  0  0  0  0  0  0  0  0  0  0  0
  1  2  1  0  0  0  0
  1 32  1  0  0  0  0
  2 34  1  0  0  0  0
  3 21  2  0  0  0  0
  4 22  2  0  0  0  0
  5 25  2  0  0  0  0
  6 26  2  0  0  0  0
  7 31  2  0  0  0  0
  8 33  2  0  0  0  0
  9 17  1  0  0  0  0
  9 21  1  0  0  0  0
  9 37  1  0  0  0  0
 10 16  1  0  0  0  0
 10 22  1  0  0  0  0
 10 38  1  0  0  0  0
 11 20  1  0  0  0  0
 11 26  1  0  0  0  0
 11 39  1  0  0  0  0
 12 25  1  0  0  0  0
 12 28  1  0  0  0  0
 12 40  1  0  0  0  0
 13 24  1  0  0  0  0
 13 31  1  0  0  0  0
 13 41  1  0  0  0  0
 14 29  1  0  0  0  0
 14 33  1  0  0  0  0
 14 42  1  0  0  0  0
 15 36  1  0  0  0  0
 16 18  1  1  0  0  0
 16 21  1  0  0  0  0
 17 19  1  1  0  0  0
 17 25  1  0  0  0  0
 20 22  1  0  0  0  0
 20 23  1  6  0  0  0
 24 26  1  0  0  0  0
 24 27  1  1  0  0  0
 28 32  1  0  0  0  0
 29 31  1  0  0  0  0
 29 35  1  6  0  0  0
 30 15  1  6  0  0  0
 30 33  1  0  0  0  0
 30 34  1  0  0  0  0
M  END
$$$$
CC#CC=O
 OpenBabel07182308452D

  5  4  0  0  1  0  0  0  0  0999 V2000
   -4.1115    1.5308    0.0000 C   0  0  0  0  0  0  0  0  0  0  0  0
   -3.3579    1.1952    0.0000 C   0  0  0  0  0  0  0  0  0  0  0  0
   -2.6042    0.8597    0.0000 C   0  0  0  0  0  0  0  0  0  0  0  0
   -1.8505    0.5241    0.0000 C   0  0  0  0  0  0  0  0  0  0  0  0
   -1.7643   -0.2963    0.0000 O   0  0  0  0  0  0  0  0  0  0  0  0
  1  2  1  0  0  0  0
  2  3  3  0  0  0  0
  3  4  1  0  0  0  0
  4  5  2  0  0  0  0
M  END
$$$$
Nc1nccn2c1cnc2
 OpenBabel07182308452D

 12 13  0  0  1  0  0  0  0  0999 V2000
   -0.1435   -0.0305    0.0000 C   0  0  0  0  0  0  0  0  0  0  0  0
   -0.6284   -0.6979    0.0000 N   0  0  0  0  0  0  0  0  0  0  0  0
   -0.1435   -1.3654    0.0000 C   0  0  0  0  0  0  0  0  0  0  0  0
    0.6411   -1.1104    0.0000 C   0  0  0  0  0  0  0  0  0  0  0  0
    0.6411   -0.2854    0.0000 N   0  0  0  0  0  0  0  0  0  0  0  0
    1.3556    0.1271    0.0000 C   0  0  0  0  0  0  0  0  0  0  0  0
    2.0701   -0.2854    0.0000 C   0  0  0  0  0  0  0  0  0  0  0  0
    2.0701   -1.1104    0.0000 N   0  0  0  0  0  0  0  0  0  0  0  0
    1.3556   -1.5229    0.0000 C   0  0  0  0  0  0  0  0  0  0  0  0
    1.3556   -2.3479    0.0000 N   0  0  0  0  0  0  0  0  0  0  0  0
    0.5030   -2.8402    0.0000 H   0  0  0  0  0  0  0  0  0  0  0  0
    2.2082   -2.8401    0.0000 H   0  0  0  0  0  0  0  0  0  0  0  0
  1  2  2  0  0  0  0
  1  5  1  0  0  0  0
  2  3  1  0  0  0  0
  3  4  2  0  0  0  0
  4  5  1  0  0  0  0
  4  9  1  0  0  0  0
  5  6  1  0  0  0  0
  6  7  2  0  0  0  0
  7  8  1  0  0  0  0
  8  9  2  0  0  0  0
  9 10  1  0  0  0  0
 10 11  1  0  0  0  0
 10 12  1  0  0  0  0
M  END
$$$$
Nc1cc2ccn(c2cc1F)C
 OpenBabel07182308452D

 13 14  0  0  1  0  0  0  0  0999 V2000
    5.7200   -2.2771    0.0000 C   0  0  0  0  0  0  0  0  0  0  0  0
    4.9785   -1.9155    0.0000 C   0  0  0  0  0  0  0  0  0  0  0  0
    5.0933   -1.0985    0.0000 C   0  0  0  0  0  0  0  0  0  0  0  0
    4.5630   -0.4665    0.0000 C   0  0  0  0  0  0  0  0  0  0  0  0
    4.8452    0.3087    0.0000 C   0  0  0  0  0  0  0  0  0  0  0  0
    5.6577    0.4520    0.0000 C   0  0  0  0  0  0  0  0  0  0  0  0
    6.1880   -0.1800    0.0000 C   0  0  0  0  0  0  0  0  0  0  0  0
    5.9058   -0.9553    0.0000 C   0  0  0  0  0  0  0  0  0  0  0  0
    6.2931   -1.6837    0.0000 N   0  0  0  0  0  0  0  0  0  0  0  0
    7.1101   -1.7985    0.0000 C   0  0  0  0  0  0  0  0  0  0  0  0
    5.9398    1.2272    0.0000 F   0  0  0  0  0  0  0  0  0  0  0  0
    4.3149    0.9407    0.0000 N   0  0  0  0  0  0  0  0  0  0  0  0
    3.3454    0.7698    0.0000 H   0  0  0  0  0  0  0  0  0  0  0  0
  1  2  2  0  0  0  0
  1  9  1  0  0  0  0
  2  3  1  0  0  0  0
  3  4  2  0  0  0  0
  3  8  1  0  0  0  0
  4  5  1  0  0  0  0
  5  6  2  0  0  0  0
  5 12  1  0  0  0  0
  6  7  1  0  0  0  0
  6 11  1  0  0  0  0
  7  8  2  0  0  0  0
  8  9  1  0  0  0  0
  9 10  1  0  0  0  0
 12 13  1  0  0  0  0
M  END
$$$$
Clc1ccc(c(c1)N)F
 OpenBabel07182308452D

 10 10  0  0  1  0  0  0  0  0999 V2000
   -5.6954   -1.1287    0.0000 C   0  0  0  0  0  0  0  0  0  0  0  0
   -4.9108   -0.8737    0.0000 C   0  0  0  0  0  0  0  0  0  0  0  0
   -4.2977   -1.4258    0.0000 C   0  0  0  0  0  0  0  0  0  0  0  0
   -4.4692   -2.2327    0.0000 C   0  0  0  0  0  0  0  0  0  0  0  0
   -5.2538   -2.4877    0.0000 C   0  0  0  0  0  0  0  0  0  0  0  0
   -5.8669   -1.9356    0.0000 C   0  0  0  0  0  0  0  0  0  0  0  0
   -6.6515   -2.1906    0.0000 F   0  0  0  0  0  0  0  0  0  0  0  0
   -5.4253   -3.2947    0.0000 N   0  0  0  0  0  0  0  0  0  0  0  0
   -3.5130   -1.1708    0.0000 Cl  0  0  0  0  0  0  0  0  0  0  0  0
   -6.3616   -3.5990    0.0000 H   0  0  0  0  0  0  0  0  0  0  0  0
  1  2  2  0  0  0  0
  1  6  1  0  0  0  0
  2  3  1  0  0  0  0
  3  4  2  0  0  0  0
  3  9  1  0  0  0  0
  4  5  1  0  0  0  0
  5  6  2  0  0  0  0
  5  8  1  0  0  0  0
  6  7  1  0  0  0  0
  8 10  1  0  0  0  0
M  END
$$$$
Nc1ncc2c(n1)[nH]cc2
 OpenBabel07182308452D

 11 12  0  0  0  0  0  0  0  0999 V2000
    0.6538   -0.6979    0.0000 C   0  0  0  0  0  0  0  0  0  0  0  0
    1.1387   -0.0305    0.0000 C   0  0  0  0  0  0  0  0  0  0  0  0
    1.9233   -0.2854    0.0000 C   0  0  0  0  0  0  0  0  0  0  0  0
    2.6378    0.1271    0.0000 C   0  0  0  0  0  0  0  0  0  0  0  0
    3.3523   -0.2854    0.0000 N   0  0  0  0  0  0  0  0  0  0  0  0
    3.3523   -1.1104    0.0000 C   0  0  0  0  0  0  0  0  0  0  0  0
    2.6378   -1.5229    0.0000 N   0  0  0  0  0  0  0  0  0  0  0  0
    1.9233   -1.1104    0.0000 C   0  0  0  0  0  0  0  0  0  0  0  0
    1.1387   -1.3654    0.0000 N   0  0  0  0  0  0  0  0  0  0  0  0
    4.0668   -1.5229    0.0000 N   0  0  0  0  0  0  0  0  0  0  0  0
    4.9194   -1.0306    0.0000 H   0  0  0  0  0  0  0  0  0  0  0  0
  1  2  2  0  0  0  0
  1  9  1  0  0  0  0
  2  3  1  0  0  0  0
  3  4  2  0  0  0  0
  3  8  1  0  0  0  0
  4  5  1  0  0  0  0
  5  6  2  0  0  0  0
  6  7  1  0  0  0  0
  6 10  1  0  0  0  0
  7  8  2  0  0  0  0
  8  9  1  0  0  0  0
 10 11  1  0  0  0  0
M  END
$$$$
Fc1cc(F)cc(c1)F
 OpenBabel07182308452D

  9  9  0  0  0  0  0  0  0  0999 V2000
    1.9647   -8.3531    0.0000 C   0  0  0  0  0  0  0  0  0  0  0  0
    1.2502   -8.7656    0.0000 C   0  0  0  0  0  0  0  0  0  0  0  0
    0.5357   -8.3531    0.0000 C   0  0  0  0  0  0  0  0  0  0  0  0
    0.5358   -7.5281    0.0000 C   0  0  0  0  0  0  0  0  0  0  0  0
    1.2502   -7.1156    0.0000 C   0  0  0  0  0  0  0  0  0  0  0  0
    1.9647   -7.5281    0.0000 C   0  0  0  0  0  0  0  0  0  0  0  0
    2.6792   -7.1156    0.0000 F   0  0  0  0  0  0  0  0  0  0  0  0
   -0.1786   -7.1156    0.0000 F   0  0  0  0  0  0  0  0  0  0  0  0
    1.2503   -9.5906    0.0000 F   0  0  0  0  0  0  0  0  0  0  0  0
  1  2  2  0  0  0  0
  1  6  1  0  0  0  0
  2  3  1  0  0  0  0
  2  9  1  0  0  0  0
  3  4  2  0  0  0  0
  4  5  1  0  0  0  0
  4  8  1  0  0  0  0
  5  6  2  0  0  0  0
  6  7  1  0  0  0  0
M  END
$$$$
NC1=NCCO1
 OpenBabel07182308452D

  7  7  0  0  0  0  0  0  0  0999 V2000
    1.5342   -0.7349    0.0000 N   0  0  0  0  0  0  0  0  0  0  0  0
    1.5342    0.0901    0.0000 C   0  0  0  0  0  0  0  0  0  0  0  0
    0.8668    0.5750    0.0000 N   0  0  0  0  0  0  0  0  0  0  0  0
    1.1217    1.3596    0.0000 C   0  0  0  0  0  0  0  0  0  0  0  0
    1.9467    1.3596    0.0000 C   0  0  0  0  0  0  0  0  0  0  0  0
    2.2016    0.5750    0.0000 O   0  0  0  0  0  0  0  0  0  0  0  0
    0.6816   -1.2272    0.0000 H   0  0  0  0  0  0  0  0  0  0  0  0
  1  2  1  0  0  0  0
  1  7  1  0  0  0  0
  2  3  2  0  0  0  0
  2  6  1  0  0  0  0
  3  4  1  0  0  0  0
  4  5  1  0  0  0  0
  5  6  1  0  0  0  0
M  END
$$$$
c1ccc[nH]1
 OpenBabel07182308452D

  5  5  0  0  0  0  0  0  0  0999 V2000
    0.7145   -1.2375    0.0000 C   0  0  0  0  0  0  0  0  0  0  0  0
    0.0470   -1.7224    0.0000 C   0  0  0  0  0  0  0  0  0  0  0  0
    0.3020   -2.5070    0.0000 C   0  0  0  0  0  0  0  0  0  0  0  0
    1.1270   -2.5070    0.0000 N   0  0  0  0  0  0  0  0  0  0  0  0
    1.3819   -1.7224    0.0000 C   0  0  0  0  0  0  0  0  0  0  0  0
  1  2  1  0  0  0  0
  1  5  2  0  0  0  0
  2  3  2  0  0  0  0
  3  4  1  0  0  0  0
  4  5  1  0  0  0  0
M  END
$$$$
C/C(=C(/N)\C)/S
 OpenBabel07182308452D

  6  5  0  0  0  0  0  0  0  0999 V2000
   -0.0383    0.7466    0.0000 S   0  0  0  0  0  0  0  0  0  0  0  0
   -0.0383   -0.9034    0.0000 N   0  0  0  0  0  0  0  0  0  0  0  0
   -0.7529   -0.4908    0.0000 C   0  0  0  0  0  0  0  0  0  0  0  0
   -0.7529    0.3341    0.0000 C   0  0  0  0  0  0  0  0  0  0  0  0
   -1.4673    0.7466    0.0000 C   0  0  0  0  0  0  0  0  0  0  0  0
   -1.4673   -0.9034    0.0000 C   0  0  0  0  0  0  0  0  0  0  0  0
  1  4  1  0  0  0  0
  2  3  1  0  0  0  0
  3  4  2  0  0  0  0
  3  6  1  0  0  0  0
  4  5  1  0  0  0  0
M  END
$$$$
C[C@H]1CO[C@H]2N1C(=O)c1n(C2)ccc(=O)c1O
 OpenBabel07182308452D

 19 21  0  0  0  0  0  0  0  0999 V2000
   -2.5803    0.8250    0.0000 C   0  0  0  0  0  0  0  0  0  0  0  0
   -3.2948    0.4125    0.0000 C   0  0  2  0  0  0  0  0  0  0  0  0
   -3.2948   -0.4125    0.0000 N   0  0  0  0  0  0  0  0  0  0  0  0
   -2.5803   -0.8250    0.0000 C   0  0  0  0  0  0  0  0  0  0  0  0
   -1.8659   -0.4125    0.0000 C   0  0  0  0  0  0  0  0  0  0  0  0
   -1.8659    0.4125    0.0000 N   0  0  0  0  0  0  0  0  0  0  0  0
   -1.1514    0.8250    0.0000 C   0  0  0  0  0  0  0  0  0  0  0  0
   -1.1514   -0.8250    0.0000 C   0  0  0  0  0  0  0  0  0  0  0  0
   -0.4369   -0.4125    0.0000 C   0  0  0  0  0  0  0  0  0  0  0  0
   -0.4369    0.4125    0.0000 C   0  0  0  0  0  0  0  0  0  0  0  0
   -4.0794   -0.6674    0.0000 C   0  0  2  0  0  0  0  0  0  0  0  0
   -4.5643    0.0000    0.0000 C   0  0  0  0  0  0  0  0  0  0  0  0
   -4.0794    0.6673    0.0000 O   0  0  0  0  0  0  0  0  0  0  0  0
   -4.3343   -1.4520    0.0000 C   0  0  0  0  0  0  0  0  0  0  0  0
   -2.5803   -1.6500    0.0000 O   0  0  0  0  0  0  0  0  0  0  0  0
   -1.1514   -1.6500    0.0000 O   0  0  0  0  0  0  0  0  0  0  0  0
   -3.2948    1.2374    0.0000 H   0  0  0  0  0  0  0  0  0  0  0  0
    0.2774   -0.8250    0.0000 O   0  0  0  0  0  0  0  0  0  0  0  0
   -1.9629   -2.1185    0.0000 H   0  0  0  0  0  0  0  0  0  0  0  0
  1  2  1  0  0  0  0
  1  6  1  0  0  0  0
  2 13  1  0  0  0  0
  2  3  1  0  0  0  0
  2 17  1  1  0  0  0
  3  4  1  0  0  0  0
  3 11  1  0  0  0  0
  4  5  1  0  0  0  0
  4 15  2  0  0  0  0
  5  8  2  0  0  0  0
  6  5  1  0  0  0  0
  7  6  1  0  0  0  0
  7 10  2  0  0  0  0
  8  9  1  0  0  0  0
  8 16  1  0  0  0  0
  9 10  1  0  0  0  0
  9 18  2  0  0  0  0
 11 12  1  0  0  0  0
 11 14  1  1  0  0  0
 12 13  1  0  0  0  0
 16 19  1  0  0  0  0
M  END
$$$$
O=c1[nH]c(=O)c2c([nH]1)ncn2C
 OpenBabel07182308452D

 12 13  0  0  0  0  0  0  0  0999 V2000
   -0.3984    0.7541    0.0000 C   0  0  0  0  0  0  0  0  0  0  0  0
   -0.6284   -0.6979    0.0000 C   0  0  0  0  0  0  0  0  0  0  0  0
    0.6411   -0.2854    0.0000 C   0  0  0  0  0  0  0  0  0  0  0  0
    0.6411   -1.1104    0.0000 C   0  0  0  0  0  0  0  0  0  0  0  0
    1.3556    0.1271    0.0000 C   0  0  0  0  0  0  0  0  0  0  0  0
    2.0701   -1.1104    0.0000 C   0  0  0  0  0  0  0  0  0  0  0  0
   -0.1435   -1.3654    0.0000 N   0  0  0  0  0  0  0  0  0  0  0  0
   -0.1435   -0.0305    0.0000 N   0  0  0  0  0  0  0  0  0  0  0  0
    1.3556   -1.5229    0.0000 N   0  0  0  0  0  0  0  0  0  0  0  0
    2.0701   -0.2854    0.0000 N   0  0  0  0  0  0  0  0  0  0  0  0
    1.3556    0.9521    0.0000 O   0  0  0  0  0  0  0  0  0  0  0  0
    2.7845   -1.5229    0.0000 O   0  0  0  0  0  0  0  0  0  0  0  0
  4  3  2  0  0  0  0
  5  3  1  0  0  0  0
  7  2  2  0  0  0  0
  7  4  1  0  0  0  0
  8  1  1  0  0  0  0
  8  2  1  0  0  0  0
  8  3  1  0  0  0  0
  9  4  1  0  0  0  0
  9  6  1  0  0  0  0
 10  5  1  0  0  0  0
 10  6  1  0  0  0  0
 11  5  2  0  0  0  0
 12  6  2  0  0  0  0
M  END
$$$$
Fc1cc2NCCc3c2c(c1)c(=O)[nH]n3
 OpenBabel07182308452D

 17 19  0  0  1  0  0  0  0  0999 V2000
    1.4289    0.0000    0.0000 C   0  0  0  0  0  0  0  0  0  0  0  0
    2.1434   -0.4125    0.0000 C   0  0  0  0  0  0  0  0  0  0  0  0
    2.1434   -1.2375    0.0000 C   0  0  0  0  0  0  0  0  0  0  0  0
    2.8579   -1.6500    0.0000 C   0  0  0  0  0  0  0  0  0  0  0  0
    2.8579   -2.4750    0.0000 C   0  0  0  0  0  0  0  0  0  0  0  0
    2.1434   -2.8875    0.0000 C   0  0  0  0  0  0  0  0  0  0  0  0
    1.4289   -2.4750    0.0000 C   0  0  0  0  0  0  0  0  0  0  0  0
    1.4289   -1.6500    0.0000 C   0  0  0  0  0  0  0  0  0  0  0  0
    0.7145   -1.2375    0.0000 N   0  0  0  0  0  0  0  0  0  0  0  0
    0.7145   -0.4125    0.0000 C   0  0  0  0  0  0  0  0  0  0  0  0
    2.1434   -3.7125    0.0000 F   0  0  0  0  0  0  0  0  0  0  0  0
    3.5724   -1.2375    0.0000 C   0  0  0  0  0  0  0  0  0  0  0  0
    4.2868   -1.6500    0.0000 O   0  0  0  0  0  0  0  0  0  0  0  0
    3.5724   -0.4125    0.0000 N   0  0  0  0  0  0  0  0  0  0  0  0
    2.8579    0.0000    0.0000 N   0  0  0  0  0  0  0  0  0  0  0  0
   -0.1381   -1.7297    0.0000 H   0  0  0  0  0  0  0  0  0  0  0  0
    4.4250    0.0798    0.0000 H   0  0  0  0  0  0  0  0  0  0  0  0
  1  2  1  0  0  0  0
  1 10  1  0  0  0  0
  2  3  1  0  0  0  0
  2 15  2  0  0  0  0
  3  4  1  0  0  0  0
  3  8  2  0  0  0  0
  4  5  2  0  0  0  0
  4 12  1  0  0  0  0
  5  6  1  0  0  0  0
  6  7  2  0  0  0  0
  6 11  1  0  0  0  0
  7  8  1  0  0  0  0
  8  9  1  0  0  0  0
  9 10  1  0  0  0  0
  9 16  1  0  0  0  0
 12 13  2  0  0  0  0
 12 14  1  0  0  0  0
 14 15  1  0  0  0  0
 14 17  1  0  0  0  0
M  END
$$$$
CN1CCc2c(C1)c(Cl)cc(c2)Cl
 OpenBabel07182308452D

 13 14  0  0  1  0  0  0  0  0999 V2000
  -27.1499   -4.9500    0.0000 C   0  0  0  0  0  0  0  0  0  0  0  0
  -26.4354   -4.5375    0.0000 N   0  0  0  0  0  0  0  0  0  0  0  0
  -25.7210   -4.9500    0.0000 C   0  0  0  0  0  0  0  0  0  0  0  0
  -25.0065   -4.5375    0.0000 C   0  0  0  0  0  0  0  0  0  0  0  0
  -25.0065   -3.7125    0.0000 C   0  0  0  0  0  0  0  0  0  0  0  0
  -24.2920   -3.3000    0.0000 C   0  0  0  0  0  0  0  0  0  0  0  0
  -23.5775   -3.7125    0.0000 C   0  0  0  0  0  0  0  0  0  0  0  0
  -23.5775   -4.5375    0.0000 C   0  0  0  0  0  0  0  0  0  0  0  0
  -24.2920   -4.9500    0.0000 C   0  0  0  0  0  0  0  0  0  0  0  0
  -24.2920   -5.7750    0.0000 Cl  0  0  0  0  0  0  0  0  0  0  0  0
  -22.8631   -3.3000    0.0000 Cl  0  0  0  0  0  0  0  0  0  0  0  0
  -25.7210   -3.3000    0.0000 C   0  0  0  0  0  0  0  0  0  0  0  0
  -26.4354   -3.7125    0.0000 C   0  0  0  0  0  0  0  0  0  0  0  0
  1  2  1  0  0  0  0
  2  3  1  0  0  0  0
  2 13  1  0  0  0  0
  3  4  1  0  0  0  0
  4  5  2  0  0  0  0
  4  9  1  0  0  0  0
  5  6  1  0  0  0  0
  5 12  1  0  0  0  0
  6  7  2  0  0  0  0
  7  8  1  0  0  0  0
  7 11  1  0  0  0  0
  8  9  2  0  0  0  0
  9 10  1  0  0  0  0
 12 13  1  0  0  0  0
M  END
$$$$
COP=S
 OpenBabel07182308452D

  4  3  0  0  0  0  0  0  0  0999 V2000
    0.0000    2.4750    0.0000 P   0  0  0  0  0  0  0  0  0  0  0  0
   -0.4125    1.7605    0.0000 S   0  0  0  0  0  0  0  0  0  0  0  0
    0.4125    3.1895    0.0000 O   0  0  0  0  0  0  0  0  0  0  0  0
    1.2375    3.1895    0.0000 C   0  0  0  0  0  0  0  0  0  0  0  0
  1  2  2  0  0  0  0
  1  3  1  0  0  0  0
  3  4  1  0  0  0  0
M  END
$$$$
Cc1cnc2n1nccn2
 OpenBabel07182308452D

 10 11  0  0  0  0  0  0  0  0999 V2000
   -1.0257   -0.6191    0.0000 C   0  0  0  0  0  0  0  0  0  0  0  0
   -0.3110   -0.2067    0.0000 N   0  0  0  0  0  0  0  0  0  0  0  0
    0.4010   -0.6187    0.0000 N   0  0  0  0  0  0  0  0  0  0  0  0
    0.4010   -1.4441    0.0000 C   0  0  0  0  0  0  0  0  0  0  0  0
   -0.3093   -1.8557    0.0000 N   0  0  0  0  0  0  0  0  0  0  0  0
   -1.0257   -1.4478    0.0000 C   0  0  0  0  0  0  0  0  0  0  0  0
    1.1784   -1.6988    0.0000 N   0  0  0  0  0  0  0  0  0  0  0  0
    1.6648   -1.0356    0.0000 C   0  0  0  0  0  0  0  0  0  0  0  0
    1.1881   -0.3708    0.0000 C   0  0  0  0  0  0  0  0  0  0  0  0
    1.6005    0.3437    0.0000 C   0  0  0  0  0  0  0  0  0  0  0  0
  1  6  1  0  0  0  0
  2  1  2  0  0  0  0
  3  2  1  0  0  0  0
  3  9  1  0  0  0  0
  4  3  1  0  0  0  0
  4  7  2  0  0  0  0
  5  4  1  0  0  0  0
  6  5  2  0  0  0  0
  7  8  1  0  0  0  0
  8  9  2  0  0  0  0
  9 10  1  0  0  0  0
M  END
$$$$
c1ccc2c(c1)n[nH]c2
 OpenBabel07182308452D

  9 10  0  0  1  0  0  0  0  0999 V2000
    2.0701    1.1104    0.0000 C   0  0  0  0  0  0  0  0  0  0  0  0
    1.3556    0.6979    0.0000 C   0  0  0  0  0  0  0  0  0  0  0  0
    0.6411    1.1104    0.0000 C   0  0  0  0  0  0  0  0  0  0  0  0
   -0.1435    0.8555    0.0000 C   0  0  0  0  0  0  0  0  0  0  0  0
   -0.6284    1.5229    0.0000 N   0  0  0  0  0  0  0  0  0  0  0  0
   -0.1435    2.1904    0.0000 N   0  0  0  0  0  0  0  0  0  0  0  0
    0.6411    1.9354    0.0000 C   0  0  0  0  0  0  0  0  0  0  0  0
    1.3556    2.3479    0.0000 C   0  0  0  0  0  0  0  0  0  0  0  0
    2.0701    1.9354    0.0000 C   0  0  0  0  0  0  0  0  0  0  0  0
  1  2  2  0  0  0  0
  1  9  1  0  0  0  0
  2  3  1  0  0  0  0
  3  4  2  0  0  0  0
  3  7  1  0  0  0  0
  4  5  1  0  0  0  0
  5  6  1  0  0  0  0
  6  7  2  0  0  0  0
  7  8  1  0  0  0  0
  8  9  2  0  0  0  0
M  END
$$$$
Cn1ccc2c1cncc2
 OpenBabel07182308452D

 10 11  0  0  0  0  0  0  0  0999 V2000
   -2.5520    1.9765    0.0000 C   0  0  0  0  0  0  0  0  0  0  0  0
   -1.8375    1.5640    0.0000 C   0  0  0  0  0  0  0  0  0  0  0  0
   -1.8375    0.7390    0.0000 C   0  0  0  0  0  0  0  0  0  0  0  0
   -2.5520    0.3265    0.0000 C   0  0  0  0  0  0  0  0  0  0  0  0
   -3.2665    0.7390    0.0000 C   0  0  0  0  0  0  0  0  0  0  0  0
   -3.2665    1.5640    0.0000 N   0  0  0  0  0  0  0  0  0  0  0  0
   -1.0529    1.8190    0.0000 N   0  0  0  0  0  0  0  0  0  0  0  0
   -1.0529    0.4841    0.0000 C   0  0  0  0  0  0  0  0  0  0  0  0
   -0.5680    1.1515    0.0000 C   0  0  0  0  0  0  0  0  0  0  0  0
   -0.7980    2.6036    0.0000 C   0  0  0  0  0  0  0  0  0  0  0  0
  1  2  1  0  0  0  0
  1  6  2  0  0  0  0
  2  3  2  0  0  0  0
  2  7  1  0  0  0  0
  3  4  1  0  0  0  0
  3  8  1  0  0  0  0
  4  5  2  0  0  0  0
  5  6  1  0  0  0  0
  7  9  1  0  0  0  0
  7 10  1  0  0  0  0
  8  9  2  0  0  0  0
M  END
$$$$
Cc1n[nH]cn1
 OpenBabel07182308452D

  6  6  0  0  0  0  0  0  0  0999 V2000
   -2.5520    2.8015    0.0000 N   0  0  0  0  0  0  0  0  0  0  0  0
   -3.2195    3.2865    0.0000 N   0  0  0  0  0  0  0  0  0  0  0  0
   -2.9644    4.0711    0.0000 C   0  0  0  0  0  0  0  0  0  0  0  0
   -2.1395    4.0711    0.0000 N   0  0  0  0  0  0  0  0  0  0  0  0
   -1.8846    3.2865    0.0000 C   0  0  0  0  0  0  0  0  0  0  0  0
   -3.4494    4.7384    0.0000 C   0  0  0  0  0  0  0  0  0  0  0  0
  1  2  1  0  0  0  0
  1  5  1  0  0  0  0
  2  3  2  0  0  0  0
  3  4  1  0  0  0  0
  3  6  1  0  0  0  0
  4  5  2  0  0  0  0
M  END
$$$$
Fc1cc(F)c(c(c1)F)C
 OpenBabel07182308452D

 10 10  0  0  1  0  0  0  0  0999 V2000
   -6.3681   -0.6872    0.0000 C   0  0  0  0  0  0  0  0  0  0  0  0
   -7.1077   -0.3216    0.0000 C   0  0  0  0  0  0  0  0  0  0  0  0
   -7.1609    0.5017    0.0000 C   0  0  0  0  0  0  0  0  0  0  0  0
   -6.4745    0.9594    0.0000 C   0  0  0  0  0  0  0  0  0  0  0  0
   -5.7349    0.5938    0.0000 C   0  0  0  0  0  0  0  0  0  0  0  0
   -5.6817   -0.2295    0.0000 C   0  0  0  0  0  0  0  0  0  0  0  0
   -4.9422   -0.5950    0.0000 F   0  0  0  0  0  0  0  0  0  0  0  0
   -5.0485    1.0515    0.0000 C   0  0  0  0  0  0  0  0  0  0  0  0
   -6.5277    1.7827    0.0000 F   0  0  0  0  0  0  0  0  0  0  0  0
   -7.7941   -0.7793    0.0000 F   0  0  0  0  0  0  0  0  0  0  0  0
  1  2  2  0  0  0  0
  1  6  1  0  0  0  0
  2  3  1  0  0  0  0
  2 10  1  0  0  0  0
  3  4  2  0  0  0  0
  4  5  1  0  0  0  0
  4  9  1  0  0  0  0
  5  6  2  0  0  0  0
  5  8  1  0  0  0  0
  6  7  1  0  0  0  0
M  END
$$$$
O=C1N2[C@H]3CC[C@H](C3)O[C@@H]2Cn2c1c(O)c(=O)cc2
 OpenBabel07182308452D

 20 23  0  0  1  0  0  0  0  0999 V2000
   -2.8830    0.7781    0.0000 C   0  0  0  0  0  0  0  0  0  0  0  0
   -2.1966    1.2358    0.0000 C   0  0  0  0  0  0  0  0  0  0  0  0
   -1.4570    0.8702    0.0000 N   0  0  0  0  0  0  0  0  0  0  0  0
   -1.4038    0.0469    0.0000 C   0  0  0  0  0  0  0  0  0  0  0  0
   -2.0902   -0.4108    0.0000 C   0  0  0  0  0  0  0  0  0  0  0  0
   -2.8298   -0.0452    0.0000 C   0  0  0  0  0  0  0  0  0  0  0  0
   -3.5162   -0.5029    0.0000 O   0  0  0  0  0  0  0  0  0  0  0  0
   -2.0370   -1.2341    0.0000 O   0  0  0  0  0  0  0  0  0  0  0  0
   -0.6643   -0.3187    0.0000 C   0  0  0  0  0  0  0  0  0  0  0  0
   -0.6111   -1.1419    0.0000 O   0  0  0  0  0  0  0  0  0  0  0  0
    0.0221    0.1390    0.0000 N   0  0  0  0  0  0  0  0  0  0  0  0
    0.6990   -0.3327    0.0000 C   0  0  1  0  0  0  0  0  0  0  0  0
    1.4898   -0.0976    0.0000 C   0  0  0  0  0  0  0  0  0  0  0  0
    1.7991    0.6672    0.0000 C   0  0  0  0  0  0  0  0  0  0  0  0
    1.3939    1.3859    0.0000 C   0  0  2  0  0  0  0  0  0  0  0  0
    1.2613    0.4397    0.0000 C   0  0  0  0  0  0  0  0  0  0  0  0
    0.5795    1.5172    0.0000 O   0  0  0  0  0  0  0  0  0  0  0  0
   -0.0311    0.9623    0.0000 C   0  0  2  0  0  0  0  0  0  0  0  0
   -0.7706    1.3279    0.0000 C   0  0  0  0  0  0  0  0  0  0  0  0
   -2.8166   -1.7540    0.0000 H   0  0  0  0  0  0  0  0  0  0  0  0
  1  2  2  0  0  0  0
  1  6  1  0  0  0  0
  2  3  1  0  0  0  0
  3  4  1  0  0  0  0
  3 19  1  0  0  0  0
  4  5  2  0  0  0  0
  4  9  1  0  0  0  0
  5  6  1  0  0  0  0
  5  8  1  0  0  0  0
  6  7  2  0  0  0  0
  8 20  1  0  0  0  0
  9 10  2  0  0  0  0
  9 11  1  0  0  0  0
 11 12  1  0  0  0  0
 12 13  1  6  0  0  0
 12 16  1  0  0  0  0
 13 14  1  0  0  0  0
 15 14  1  6  0  0  0
 15 16  1  0  0  0  0
 15 17  1  0  0  0  0
 17 18  1  0  0  0  0
 18 11  1  0  0  0  0
 18 19  1  1  0  0  0
M  END
$$$$
Oc1ccc(c(c1)Cl)N
 OpenBabel07182308452D

 10 10  0  0  0  0  0  0  0  0999 V2000
   -1.4550   -0.6874    0.0000 C   0  0  0  0  0  0  0  0  0  0  0  0
   -1.4530    0.1376    0.0000 C   0  0  0  0  0  0  0  0  0  0  0  0
   -0.7375    0.5485    0.0000 C   0  0  0  0  0  0  0  0  0  0  0  0
   -0.0239    0.1341    0.0000 C   0  0  0  0  0  0  0  0  0  0  0  0
   -0.0258   -0.6909    0.0000 C   0  0  0  0  0  0  0  0  0  0  0  0
   -0.7415   -1.1016    0.0000 C   0  0  0  0  0  0  0  0  0  0  0  0
   -2.0274   -1.0160    0.0000 Cl  0  0  0  0  0  0  0  0  0  0  0  0
    0.6871   -1.1068    0.0000 O   0  0  0  0  0  0  0  0  0  0  0  0
   -2.1661    0.5537    0.0000 N   0  0  0  0  0  0  0  0  0  0  0  0
   -3.0208    0.0651    0.0000 H   0  0  0  0  0  0  0  0  0  0  0  0
  1  2  2  0  0  0  0
  1  7  1  0  0  0  0
  2  3  1  0  0  0  0
  2  9  1  0  0  0  0
  3  4  2  0  0  0  0
  4  5  1  0  0  0  0
  5  6  2  0  0  0  0
  5  8  1  0  0  0  0
  6  1  1  0  0  0  0
  9 10  1  0  0  0  0
M  END
$$$$
CC1NCCS(=O)(=O)C1
 OpenBabel07182308452D

  9  9  0  0  0  0  0  0  0  0999 V2000
    4.3201    0.4516    0.0000 C   0  0  0  0  0  0  0  0  0  0  0  0
    4.9332   -0.1002    0.0000 C   0  0  3  0  0  0  0  0  0  0  0  0
    5.7178    0.1546    0.0000 C   0  0  0  0  0  0  0  0  0  0  0  0
    6.3309   -0.3974    0.0000 S   0  0  0  0  0  0  0  0  0  0  0  0
    6.7681    0.3022    0.0000 O   0  0  0  0  0  0  0  0  0  0  0  0
    7.0958   -0.7064    0.0000 O   0  0  0  0  0  0  0  0  0  0  0  0
    6.1594   -1.2044    0.0000 C   0  0  0  0  0  0  0  0  0  0  0  0
    5.3748   -1.4593    0.0000 C   0  0  0  0  0  0  0  0  0  0  0  0
    4.7617   -0.9072    0.0000 N   0  0  0  0  0  0  0  0  0  0  0  0
  1  2  1  0  0  0  0
  2  3  1  0  0  0  0
  2  9  1  0  0  0  0
  3  4  1  0  0  0  0
  4  5  2  0  0  0  0
  4  6  2  0  0  0  0
  4  7  1  0  0  0  0
  7  8  1  0  0  0  0
  8  9  1  0  0  0  0
M  END
$$$$
O[C@H]1[C@H](O)C2COC([C@@H]1O)O2
 OpenBabel07182308452D

 14 15  0  0  1  0  0  0  0  0999 V2000
    0.8044   -0.1835    0.0000 C   0  0  3  0  0  0  0  0  0  0  0  0
    1.6087    0.0001    0.0000 C   0  0  1  0  0  0  0  0  0  0  0  0
    1.9666    0.7434    0.0000 C   0  0  2  0  0  0  0  0  0  0  0  0
    1.6087    1.4867    0.0000 C   0  0  1  0  0  0  0  0  0  0  0  0
    0.8044    1.6703    0.0000 C   0  0  3  0  0  0  0  0  0  0  0  0
    1.0361    0.7434    0.0000 O   0  0  0  0  0  0  0  0  0  0  0  0
    0.1593    1.1559    0.0000 C   0  0  0  0  0  0  0  0  0  0  0  0
    0.1593    0.3309    0.0000 O   0  0  0  0  0  0  0  0  0  0  0  0
    2.1231    2.1317    0.0000 O   0  0  0  0  0  0  0  0  0  0  0  0
    2.7916    0.7434    0.0000 O   0  0  0  0  0  0  0  0  0  0  0  0
    2.1231   -0.6449    0.0000 O   0  0  0  0  0  0  0  0  0  0  0  0
    3.0823    1.9871    0.0000 H   0  0  0  0  0  0  0  0  0  0  0  0
    3.2766   -0.0966    0.0000 H   0  0  0  0  0  0  0  0  0  0  0  0
    1.7687   -1.5479    0.0000 H   0  0  0  0  0  0  0  0  0  0  0  0
  1  2  1  0  0  0  0
  1  6  1  0  0  0  0
  1  8  1  0  0  0  0
  2  3  1  0  0  0  0
  2 11  1  1  0  0  0
  3  4  1  0  0  0  0
  3 10  1  6  0  0  0
  4  5  1  0  0  0  0
  4  9  1  1  0  0  0
  5  6  1  0  0  0  0
  5  7  1  0  0  0  0
  7  8  1  0  0  0  0
  9 12  1  0  0  0  0
 10 13  1  0  0  0  0
 11 14  1  0  0  0  0
M  END
$$$$
N#Cc1cnc2c(c1N)cc(cc2)N
 OpenBabel07182308452D

 16 17  0  0  0  0  0  0  0  0999 V2000
   -0.7145   -1.2375    0.0000 C   0  0  0  0  0  0  0  0  0  0  0  0
    0.0000   -1.6500    0.0000 C   0  0  0  0  0  0  0  0  0  0  0  0
    0.7145   -1.2375    0.0000 C   0  0  0  0  0  0  0  0  0  0  0  0
    0.7145   -0.4125    0.0000 C   0  0  0  0  0  0  0  0  0  0  0  0
    0.0000   -0.0000    0.0000 C   0  0  0  0  0  0  0  0  0  0  0  0
   -0.7145   -0.4125    0.0000 C   0  0  0  0  0  0  0  0  0  0  0  0
   -1.4289    0.0000    0.0000 N   0  0  0  0  0  0  0  0  0  0  0  0
    1.4289   -0.0000    0.0000 C   0  0  0  0  0  0  0  0  0  0  0  0
    2.1434   -0.4125    0.0000 C   0  0  0  0  0  0  0  0  0  0  0  0
    2.1434   -1.2375    0.0000 C   0  0  0  0  0  0  0  0  0  0  0  0
    1.4289   -1.6500    0.0000 N   0  0  0  0  0  0  0  0  0  0  0  0
    2.8579   -0.0000    0.0000 C   0  0  0  0  0  0  0  0  0  0  0  0
    3.5724    0.4125    0.0000 N   0  0  0  0  0  0  0  0  0  0  0  0
    1.4289    0.8250    0.0000 N   0  0  0  0  0  0  0  0  0  0  0  0
   -1.4289    0.9845    0.0000 H   0  0  0  0  0  0  0  0  0  0  0  0
    0.5763    1.3173    0.0000 H   0  0  0  0  0  0  0  0  0  0  0  0
  1  2  1  0  0  0  0
  1  6  2  0  0  0  0
  2  3  2  0  0  0  0
  3  4  1  0  0  0  0
  3 11  1  0  0  0  0
  4  5  2  0  0  0  0
  4  8  1  0  0  0  0
  5  6  1  0  0  0  0
  6  7  1  0  0  0  0
  7 15  1  0  0  0  0
  8  9  2  0  0  0  0
  8 14  1  0  0  0  0
  9 10  1  0  0  0  0
  9 12  1  0  0  0  0
 10 11  2  0  0  0  0
 12 13  3  0  0  0  0
 14 16  1  0  0  0  0
M  END
$$$$
O/C/1=N\C/C(=N\C/C(=N/CCSSCC/C(=N\C/C(=N/C1)/O)/O)/O)/[O-]
 OpenBabel07182308452D

 29 29  0  0  0  0  0  0  0  0999 V2000
   -0.7144    1.4437    0.0000 C   0  0  0  0  0  0  0  0  0  0  0  0
    0.7144    0.6187    0.0000 C   0  0  0  0  0  0  0  0  0  0  0  0
    2.1434   -3.5062    0.0000 C   0  0  0  0  0  0  0  0  0  0  0  0
   -0.7144   -1.0312    0.0000 C   0  0  0  0  0  0  0  0  0  0  0  0
    0.0000   -3.0937    0.0000 C   0  0  0  0  0  0  0  0  0  0  0  0
   -0.7144    0.6187    0.0000 C   0  0  0  0  0  0  0  0  0  0  0  0
    1.4289    0.2062    0.0000 C   0  0  0  0  0  0  0  0  0  0  0  0
    2.1434   -1.8562    0.0000 C   0  0  0  0  0  0  0  0  0  0  0  0
    2.8578   -3.0937    0.0000 C   0  0  0  0  0  0  0  0  0  0  0  0
   -0.7144   -1.8562    0.0000 C   0  0  0  0  0  0  0  0  0  0  0  0
    0.7144   -3.5062    0.0000 C   0  0  0  0  0  0  0  0  0  0  0  0
   -1.4289    0.2062    0.0000 C   0  0  0  0  0  0  0  0  0  0  0  0
    2.1434   -1.0312    0.0000 C   0  0  0  0  0  0  0  0  0  0  0  0
    1.4289   -3.0937    0.0000 N   0  0  0  0  0  0  0  0  0  0  0  0
   -1.4289   -0.6187    0.0000 N   0  0  0  0  0  0  0  0  0  0  0  0
    0.0000   -2.2687    0.0000 N   0  0  0  0  0  0  0  0  0  0  0  0
    1.4289   -0.6187    0.0000 N   0  0  0  0  0  0  0  0  0  0  0  0
    2.8578   -2.2687    0.0000 N   0  0  0  0  0  0  0  0  0  0  0  0
    3.5723   -3.5062    0.0000 O   0  5  0  0  0  0  0  0  0  0  0  0
   -1.4289   -2.2687    0.0000 O   0  0  0  0  0  0  0  0  0  0  0  0
    0.7144   -4.3312    0.0000 O   0  0  0  0  0  0  0  0  0  0  0  0
   -2.1434    0.6187    0.0000 O   0  0  0  0  0  0  0  0  0  0  0  0
    2.4789   -0.2775    0.0000 O   0  0  0  0  0  0  0  0  0  0  0  0
    0.0000    1.8562    0.0000 S   0  0  0  0  0  0  0  0  0  0  0  0
    0.7144    1.4437    0.0000 S   0  0  0  0  0  0  0  0  0  0  0  0
   -2.2404   -1.8002    0.0000 H   0  0  0  0  0  0  0  0  0  0  0  0
   -0.0971   -4.7997    0.0000 H   0  0  0  0  0  0  0  0  0  0  0  0
   -2.1434    1.5557    0.0000 H   0  0  0  0  0  0  0  0  0  0  0  0
    3.4108   -0.1795    0.0000 H   0  0  0  0  0  0  0  0  0  0  0  0
  6  1  1  0  0  0  0
  7  2  1  0  0  0  0
  9  3  1  0  0  0  0
 10  4  1  0  0  0  0
 11  5  1  0  0  0  0
 12  6  1  0  0  0  0
 13  8  1  0  0  0  0
 14  3  1  0  0  0  0
 14 11  2  0  0  0  0
 15  4  1  0  0  0  0
 15 12  2  0  0  0  0
 16  5  1  0  0  0  0
 16 10  2  0  0  0  0
 17  7  1  0  0  0  0
 17 13  2  0  0  0  0
 18  8  1  0  0  0  0
 18  9  2  0  0  0  0
 19  9  1  0  0  0  0
 20 10  1  0  0  0  0
 20 26  1  0  0  0  0
 21 11  1  0  0  0  0
 21 27  1  0  0  0  0
 22 12  1  0  0  0  0
 22 28  1  0  0  0  0
 23 13  1  0  0  0  0
 23 29  1  0  0  0  0
 24  1  1  0  0  0  0
 25  2  1  0  0  0  0
 25 24  1  0  0  0  0
M  CHG  1  19  -1
M  END
$$$$
[O-]C(=N)C
 OpenBabel07182308452D

  4  3  0  0  0  0  0  0  0  0999 V2000
   -1.4289    4.3312    0.0000 C   0  0  0  0  0  0  0  0  0  0  0  0
   -1.4289    3.5062    0.0000 C   0  0  0  0  0  0  0  0  0  0  0  0
   -2.1434    3.0937    0.0000 N   0  0  0  0  0  0  0  0  0  0  0  0
   -0.7144    3.0937    0.0000 O   0  5  0  0  0  0  0  0  0  0  0  0
  2  1  1  0  0  0  0
  3  2  2  0  0  0  0
  4  2  1  0  0  0  0
M  CHG  1   4  -1
M  END
$$$$
CC(=N)O
 OpenBabel07182308452D

  5  4  0  0  0  0  0  0  0  0999 V2000
   -2.1434    2.2687    0.0000 C   0  0  0  0  0  0  0  0  0  0  0  0
   -1.4289    1.8562    0.0000 C   0  0  0  0  0  0  0  0  0  0  0  0
   -1.4289    1.0312    0.0000 N   0  0  0  0  0  0  0  0  0  0  0  0
   -0.7144    2.2687    0.0000 O   0  0  0  0  0  0  0  0  0  0  0  0
    0.0971    1.8002    0.0000 H   0  0  0  0  0  0  0  0  0  0  0  0
  2  1  1  0  0  0  0
  3  2  2  0  0  0  0
  4  2  1  0  0  0  0
  4  5  1  0  0  0  0
M  END
$$$$
N#Cc1cccc(c1)F
 OpenBabel07182308452D

  9  9  0  0  1  0  0  0  0  0999 V2000
    0.0422    2.1823    0.0000 C   0  0  0  0  0  0  0  0  0  0  0  0
    0.2971    1.3977    0.0000 C   0  0  0  0  0  0  0  0  0  0  0  0
   -0.2549    0.7846    0.0000 C   0  0  0  0  0  0  0  0  0  0  0  0
   -1.0619    0.9561    0.0000 C   0  0  0  0  0  0  0  0  0  0  0  0
   -1.3168    1.7408    0.0000 C   0  0  0  0  0  0  0  0  0  0  0  0
   -0.7648    2.3539    0.0000 C   0  0  0  0  0  0  0  0  0  0  0  0
   -1.0198    3.1385    0.0000 C   0  0  0  0  0  0  0  0  0  0  0  0
   -1.2747    3.9231    0.0000 N   0  0  0  0  0  0  0  0  0  0  0  0
   -1.6139    0.3431    0.0000 F   0  0  0  0  0  0  0  0  0  0  0  0
  1  2  2  0  0  0  0
  1  6  1  0  0  0  0
  2  3  1  0  0  0  0
  3  4  2  0  0  0  0
  4  5  1  0  0  0  0
  4  9  1  0  0  0  0
  5  6  2  0  0  0  0
  6  7  1  0  0  0  0
  7  8  3  0  0  0  0
M  END
$$$$
C1Cn2c(C1)cnc2
 OpenBabel07182308452D

  8  9  0  0  1  0  0  0  0  0999 V2000
   -0.0000   -0.0000    0.0000 C   0  0  0  0  0  0  0  0  0  0  0  0
   -0.4849   -0.6674    0.0000 C   0  0  0  0  0  0  0  0  0  0  0  0
   -0.0000   -1.3349    0.0000 C   0  0  0  0  0  0  0  0  0  0  0  0
    0.7846   -1.0799    0.0000 C   0  0  0  0  0  0  0  0  0  0  0  0
    0.7846   -0.2549    0.0000 N   0  0  0  0  0  0  0  0  0  0  0  0
    1.5692    0.0000    0.0000 C   0  0  0  0  0  0  0  0  0  0  0  0
    2.0542   -0.6674    0.0000 N   0  0  0  0  0  0  0  0  0  0  0  0
    1.5692   -1.3349    0.0000 C   0  0  0  0  0  0  0  0  0  0  0  0
  1  2  1  0  0  0  0
  1  5  1  0  0  0  0
  2  3  1  0  0  0  0
  3  4  1  0  0  0  0
  4  5  1  0  0  0  0
  4  8  2  0  0  0  0
  5  6  1  0  0  0  0
  6  7  2  0  0  0  0
  7  8  1  0  0  0  0
M  END
$$$$
Fc1cccc(c1C)F
 OpenBabel07182308452D

  9  9  0  0  0  0  0  0  0  0999 V2000
   -3.4024   -2.0419    0.0000 C   0  0  0  0  0  0  0  0  0  0  0  0
   -2.7713   -1.5089    0.0000 C   0  0  0  0  0  0  0  0  0  0  0  0
   -1.9964   -1.7919    0.0000 C   0  0  0  0  0  0  0  0  0  0  0  0
   -1.8525   -2.6033    0.0000 C   0  0  0  0  0  0  0  0  0  0  0  0
   -2.4835   -3.1360    0.0000 C   0  0  0  0  0  0  0  0  0  0  0  0
   -3.2585   -2.8532    0.0000 C   0  0  0  0  0  0  0  0  0  0  0  0
   -1.0774   -2.8861    0.0000 F   0  0  0  0  0  0  0  0  0  0  0  0
   -1.3608   -1.2634    0.0000 C   0  0  0  0  0  0  0  0  0  0  0  0
   -2.8723   -0.9428    0.0000 F   0  0  0  0  0  0  0  0  0  0  0  0
  1  2  1  0  0  0  0
  2  3  2  0  0  0  0
  2  9  1  0  0  0  0
  3  4  1  0  0  0  0
  3  8  1  0  0  0  0
  4  5  2  0  0  0  0
  4  7  1  0  0  0  0
  5  6  1  0  0  0  0
  6  1  2  0  0  0  0
M  END
$$$$
O=c1[nH]c(=O)c2c([nH]1)scc2C
 OpenBabel07182308452D

 12 13  0  0  0  0  0  0  0  0999 V2000
   -1.5044   -0.4476    0.0000 N   0  0  0  0  0  0  0  0  0  0  0  0
   -0.7918   -0.0349    0.0000 C   0  0  0  0  0  0  0  0  0  0  0  0
   -0.7918    0.7900    0.0000 C   0  0  0  0  0  0  0  0  0  0  0  0
   -1.5045    1.2026    0.0000 C   0  0  0  0  0  0  0  0  0  0  0  0
   -1.4997    1.9370    0.0000 O   0  0  0  0  0  0  0  0  0  0  0  0
   -2.2218    0.7899    0.0000 N   0  0  0  0  0  0  0  0  0  0  0  0
   -2.2218   -0.0350    0.0000 C   0  0  0  0  0  0  0  0  0  0  0  0
   -2.9345   -0.4477    0.0000 O   0  0  0  0  0  0  0  0  0  0  0  0
   -0.0067    1.0430    0.0000 C   0  0  0  0  0  0  0  0  0  0  0  0
    0.2476    1.8279    0.0000 C   0  0  0  0  0  0  0  0  0  0  0  0
    0.4808    0.3775    0.0000 C   0  0  0  0  0  0  0  0  0  0  0  0
   -0.0066   -0.2926    0.0000 S   0  0  0  0  0  0  0  0  0  0  0  0
  2  1  1  0  0  0  0
  2  3  2  0  0  0  0
  3  4  1  0  0  0  0
  3  9  1  0  0  0  0
  4  5  2  0  0  0  0
  4  6  1  0  0  0  0
  6  7  1  0  0  0  0
  7  8  2  0  0  0  0
  7  1  1  0  0  0  0
  9 10  1  0  0  0  0
 11  9  2  0  0  0  0
 12 11  1  0  0  0  0
 12  2  1  0  0  0  0
M  END
$$$$
c1ccnnc1
 OpenBabel07182308452D

  6  6  0  0  0  0  0  0  0  0999 V2000
   -2.9345    1.2025    0.0000 C   0  0  0  0  0  0  0  0  0  0  0  0
   -2.9345    2.0276    0.0000 N   0  0  0  0  0  0  0  0  0  0  0  0
   -3.6517    2.4400    0.0000 N   0  0  0  0  0  0  0  0  0  0  0  0
   -4.3643    2.0276    0.0000 C   0  0  0  0  0  0  0  0  0  0  0  0
   -4.3643    1.2025    0.0000 C   0  0  0  0  0  0  0  0  0  0  0  0
   -3.6516    0.7899    0.0000 C   0  0  0  0  0  0  0  0  0  0  0  0
  1  2  1  0  0  0  0
  2  3  2  0  0  0  0
  3  4  1  0  0  0  0
  4  5  2  0  0  0  0
  5  6  1  0  0  0  0
  6  1  2  0  0  0  0
M  END
$$$$
O[C@@H]1CC[C@]2([C@H](C1)CC[C@@H]1[C@@H]2CC[C@]2([C@H]1CCC2)C)C
 OpenBabel07182308452D

 26 29  0  0  0  0  0  0  0  0999 V2000
   -1.6493   -0.2259    0.0000 C   0  0  0  0  0  0  0  0  0  0  0  0
   -2.3726   -0.6226    0.0000 C   0  0  0  0  0  0  0  0  0  0  0  0
   -2.3726   -1.4626    0.0000 C   0  0  2  0  0  0  0  0  0  0  0  0
   -1.6493   -1.8749    0.0000 C   0  0  0  0  0  0  0  0  0  0  0  0
   -0.9493   -1.4626    0.0000 C   0  0  2  0  0  0  0  0  0  0  0  0
   -0.2337   -1.8749    0.0000 C   0  0  0  0  0  0  0  0  0  0  0  0
    0.4973   -1.4626    0.0000 C   0  0  0  0  0  0  0  0  0  0  0  0
    0.4973   -0.6226    0.0000 C   0  0  2  0  0  0  0  0  0  0  0  0
   -0.2337   -0.2259    0.0000 C   0  0  1  0  0  0  0  0  0  0  0  0
   -0.9493   -0.6226    0.0000 C   0  0  1  0  0  0  0  0  0  0  0  0
   -0.2337    0.5829    0.0000 C   0  0  0  0  0  0  0  0  0  0  0  0
    0.4973    1.0029    0.0000 C   0  0  0  0  0  0  0  0  0  0  0  0
    1.1973    0.5829    0.0000 C   0  0  1  0  0  0  0  0  0  0  0  0
    1.1973   -0.2259    0.0000 C   0  0  1  0  0  0  0  0  0  0  0  0
    1.9830   -0.4826    0.0000 C   0  0  0  0  0  0  0  0  0  0  0  0
    2.4497    0.1707    0.0000 C   0  0  0  0  0  0  0  0  0  0  0  0
    1.9830    0.8318    0.0000 C   0  0  0  0  0  0  0  0  0  0  0  0
    1.1973    1.4307    0.0000 C   0  0  0  0  0  0  0  0  0  0  0  0
   -0.9493    0.1862    0.0000 C   0  0  0  0  0  0  0  0  0  0  0  0
    1.1973   -1.0582    0.0000 H   0  0  0  0  0  0  0  0  0  0  0  0
    0.5052    0.1940    0.0000 H   0  0  0  0  0  0  0  0  0  0  0  0
   -0.2337   -1.0582    0.0000 H   0  0  0  0  0  0  0  0  0  0  0  0
    2.8075    1.1273    0.0000 H   0  0  0  0  0  0  0  0  0  0  0  0
   -3.0564   -1.8914    0.0000 O   0  0  0  0  0  0  0  0  0  0  0  0
   -0.9452   -2.1818    0.0000 H   0  0  0  0  0  0  0  0  0  0  0  0
   -3.9136   -1.4374    0.0000 H   0  0  0  0  0  0  0  0  0  0  0  0
  1 10  1  0  0  0  0
  2  1  1  0  0  0  0
  3  4  1  0  0  0  0
  3  2  1  0  0  0  0
  3 24  1  6  0  0  0
  4  5  1  0  0  0  0
  5 10  1  6  0  0  0
  5 25  1  0  0  0  0
  6  7  1  0  0  0  0
  6  5  1  0  0  0  0
  7  8  1  0  0  0  0
  8 14  1  6  0  0  0
  8 21  1  0  0  0  0
  9  8  1  1  0  0  0
  9 22  1  0  0  0  0
 10  9  1  6  0  0  0
 10 19  1  0  0  0  0
 11  9  1  0  0  0  0
 11 12  1  0  0  0  0
 12 13  1  0  0  0  0
 13 14  1  1  0  0  0
 13 18  1  0  0  0  0
 14 20  1  6  0  0  0
 15 14  1  0  0  0  0
 16 17  1  0  0  0  0
 16 15  1  0  0  0  0
 17 13  1  0  0  0  0
 17 23  1  0  0  0  0
 24 26  1  0  0  0  0
M  END
$$$$
O=C1NC(=S)NC21CCC2
 OpenBabel07182308452D

 10 11  0  0  0  0  0  0  0  0999 V2000
    1.4808    1.0799    0.0000 N   0  0  0  0  0  0  0  0  0  0  0  0
    2.2654    0.8250    0.0000 C   0  0  0  0  0  0  0  0  0  0  0  0
    2.9328    1.3099    0.0000 S   0  0  0  0  0  0  0  0  0  0  0  0
    2.2654   -0.0000    0.0000 N   0  0  0  0  0  0  0  0  0  0  0  0
    1.4808   -0.2549    0.0000 C   0  0  0  0  0  0  0  0  0  0  0  0
    1.2258   -1.0396    0.0000 O   0  0  0  0  0  0  0  0  0  0  0  0
    0.9959    0.4125    0.0000 C   0  0  0  0  0  0  0  0  0  0  0  0
    0.4125   -0.1709    0.0000 C   0  0  0  0  0  0  0  0  0  0  0  0
   -0.1709    0.4125    0.0000 C   0  0  0  0  0  0  0  0  0  0  0  0
    0.4125    0.9959    0.0000 C   0  0  0  0  0  0  0  0  0  0  0  0
  1  2  1  0  0  0  0
  1  7  1  0  0  0  0
  2  3  2  0  0  0  0
  2  4  1  0  0  0  0
  4  5  1  0  0  0  0
  5  6  2  0  0  0  0
  5  7  1  0  0  0  0
  7  8  1  0  0  0  0
  7 10  1  0  0  0  0
  8  9  1  0  0  0  0
  9 10  1  0  0  0  0
M  END
$$$$
N#Cc1ccccn1
 OpenBabel07182308452D

  8  8  0  0  0  0  0  0  0  0999 V2000
    2.9328   -0.4849    0.0000 C   0  0  0  0  0  0  0  0  0  0  0  0
    3.6865   -0.1494    0.0000 C   0  0  0  0  0  0  0  0  0  0  0  0
    4.3540   -0.6343    0.0000 C   0  0  0  0  0  0  0  0  0  0  0  0
    4.2677   -1.4548    0.0000 C   0  0  0  0  0  0  0  0  0  0  0  0
    3.5140   -1.7903    0.0000 N   0  0  0  0  0  0  0  0  0  0  0  0
    2.8466   -1.3054    0.0000 C   0  0  0  0  0  0  0  0  0  0  0  0
    4.9352   -1.9397    0.0000 C   0  0  0  0  0  0  0  0  0  0  0  0
    5.6026   -2.4246    0.0000 N   0  0  0  0  0  0  0  0  0  0  0  0
  1  2  2  0  0  0  0
  1  6  1  0  0  0  0
  2  3  1  0  0  0  0
  3  4  2  0  0  0  0
  4  5  1  0  0  0  0
  4  7  1  0  0  0  0
  5  6  2  0  0  0  0
  7  8  3  0  0  0  0
M  END
$$$$
O[C@H]1CCN2[C@H](C1)c1ccccc1CC2
 OpenBabel07182308452D

 15 17  0  0  1  0  0  0  0  0999 V2000
    3.5724   -1.2375    0.0000 C   0  0  0  0  0  0  0  0  0  0  0  0
    2.8579   -1.6500    0.0000 C   0  0  0  0  0  0  0  0  0  0  0  0
    2.1434   -1.2375    0.0000 N   0  0  3  0  0  0  0  0  0  0  0  0
    1.4289   -1.6500    0.0000 C   0  0  0  0  0  0  0  0  0  0  0  0
    0.7145   -1.2375    0.0000 C   0  0  0  0  0  0  0  0  0  0  0  0
    0.7145   -0.4125    0.0000 C   0  0  0  0  0  0  0  0  0  0  0  0
    0.0000    0.0000    0.0000 C   0  0  0  0  0  0  0  0  0  0  0  0
    0.0000    0.8250    0.0000 C   0  0  0  0  0  0  0  0  0  0  0  0
    0.7145    1.2375    0.0000 C   0  0  0  0  0  0  0  0  0  0  0  0
    1.4289    0.8250    0.0000 C   0  0  0  0  0  0  0  0  0  0  0  0
    1.4289    0.0000    0.0000 C   0  0  0  0  0  0  0  0  0  0  0  0
    2.1434   -0.4125    0.0000 C   0  0  1  0  0  0  0  0  0  0  0  0
    2.8579    0.0000    0.0000 C   0  0  0  0  0  0  0  0  0  0  0  0
    3.5724   -0.4125    0.0000 C   0  0  1  0  0  0  0  0  0  0  0  0
    4.2868    0.0000    0.0000 O   0  0  0  0  0  0  0  0  0  0  0  0
  1  2  1  0  0  0  0
  1 14  1  0  0  0  0
  2  3  1  0  0  0  0
  3  4  1  0  0  0  0
  4  5  1  0  0  0  0
  5  6  1  0  0  0  0
  6  7  2  0  0  0  0
  6 11  1  0  0  0  0
  7  8  1  0  0  0  0
  8  9  2  0  0  0  0
  9 10  1  0  0  0  0
 10 11  2  0  0  0  0
 11 12  1  0  0  0  0
 12  3  1  1  0  0  0
 12 13  1  0  0  0  0
 13 14  1  0  0  0  0
 14 15  1  1  0  0  0
M  END
$$$$
CC1=NC2[C@H](O1)C[C@@H]1[C@]2(C)C[C@@H]([C@H]2[C@H]1CCC1=CC(=O)C=C[C@]21C)O
 OpenBabel07182308452D

 31 35  0  0  1  0  0  0  0  0999 V2000
   -2.4556    1.6589    0.0000 C   0  0  0  0  0  0  0  0  0  0  0  0
    2.6283    1.1384    0.0000 C   0  0  0  0  0  0  0  0  0  0  0  0
    0.0912    0.9046    0.0000 C   0  0  0  0  0  0  0  0  0  0  0  0
    2.8023    3.3142    0.0000 C   0  0  0  0  0  0  0  0  0  0  0  0
    1.9823    3.2233    0.0000 C   0  0  0  0  0  0  0  0  0  0  0  0
    4.2683    1.3201    0.0000 C   0  0  0  0  0  0  0  0  0  0  0  0
    3.4483    1.2292    0.0000 C   0  0  0  0  0  0  0  0  0  0  0  0
    4.1109    2.7404    0.0000 C   0  0  0  0  0  0  0  0  0  0  0  0
    0.2148    2.9255    0.0000 C   0  0  0  0  0  0  0  0  0  0  0  0
    0.9884    0.9567    0.0000 C   0  0  0  0  0  0  0  0  0  0  0  0
   -1.6496    1.8350    0.0000 C   0  0  0  0  0  0  0  0  0  0  0  0
    3.2909    2.6495    0.0000 C   0  0  0  0  0  0  0  0  0  0  0  0
    4.5996    2.0757    0.0000 C   0  0  0  0  0  0  0  0  0  0  0  0
    1.6510    2.4678    0.0000 C   0  0  1  0  0  0  0  0  0  0  0  0
    0.8310    2.3769    0.0000 C   0  0  1  0  0  0  0  0  0  0  0  0
    1.8083    1.0475    0.0000 C   0  0  1  0  0  0  0  0  0  0  0  0
   -0.4973    2.5090    0.0000 C   0  0  2  0  0  0  0  0  0  0  0  0
    2.1396    1.8031    0.0000 C   0  0  2  0  0  0  0  0  0  0  0  0
    2.9596    1.8939    0.0000 C   0  0  2  0  0  0  0  0  0  0  0  0
    0.4997    1.6214    0.0000 C   0  0  2  0  0  0  0  0  0  0  0  0
   -0.3213    1.7030    0.0000 C   0  0  3  0  0  0  0  0  0  0  0  0
   -1.0334    1.2865    0.0000 N   0  0  0  0  0  0  0  0  0  0  0  0
    5.4196    2.1665    0.0000 O   0  0  0  0  0  0  0  0  0  0  0  0
    2.2970    0.3828    0.0000 O   0  0  0  0  0  0  0  0  0  0  0  0
   -1.3183    2.5906    0.0000 O   0  0  0  0  0  0  0  0  0  0  0  0
    1.1623    3.1325    0.0000 H   0  0  0  0  0  0  0  0  0  0  0  0
    1.3197    1.7122    0.0000 H   0  0  0  0  0  0  0  0  0  0  0  0
    1.4770    0.2920    0.0000 H   0  0  0  0  0  0  0  0  0  0  0  0
   -0.6734    3.3150    0.0000 H   0  0  0  0  0  0  0  0  0  0  0  0
    2.4709    2.5586    0.0000 H   0  0  0  0  0  0  0  0  0  0  0  0
    1.9075   -0.5056    0.0000 H   0  0  0  0  0  0  0  0  0  0  0  0
  5  4  1  0  0  0  0
  7  6  2  0  0  0  0
 11  1  1  0  0  0  0
 12  4  1  0  0  0  0
 12  8  2  0  0  0  0
 13  6  1  0  0  0  0
 13  8  1  0  0  0  0
 14  5  1  0  0  0  0
 14 15  1  6  0  0  0
 14 26  1  0  0  0  0
 15  9  1  0  0  0  0
 15 20  1  1  0  0  0
 15 27  1  0  0  0  0
 16 10  1  0  0  0  0
 16 18  1  6  0  0  0
 16 24  1  0  0  0  0
 16 28  1  0  0  0  0
 17  9  1  0  0  0  0
 17 29  1  1  0  0  0
 18 14  1  1  0  0  0
 18 30  1  0  0  0  0
 19  2  1  0  0  0  0
 19  7  1  0  0  0  0
 19 12  1  0  0  0  0
 19 18  1  6  0  0  0
 20  3  1  1  0  0  0
 20 10  1  0  0  0  0
 21 17  1  0  0  0  0
 21 20  1  0  0  0  0
 22 11  2  0  0  0  0
 22 21  1  0  0  0  0
 23 13  2  0  0  0  0
 24 31  1  0  0  0  0
 25 11  1  0  0  0  0
 25 17  1  0  0  0  0
M  END
$$$$
NC1CCNCC1
 OpenBabel07182308452D

  9  9  0  0  1  0  0  0  0  0999 V2000
    3.6715    0.2494    0.0000 N   0  0  0  0  0  0  0  0  0  0  0  0
    3.6715   -0.5750    0.0000 C   0  0  0  0  0  0  0  0  0  0  0  0
    4.3925   -0.9828    0.0000 C   0  0  0  0  0  0  0  0  0  0  0  0
    5.1074   -0.5640    0.0000 C   0  0  0  0  0  0  0  0  0  0  0  0
    5.1074    0.2603    0.0000 C   0  0  0  0  0  0  0  0  0  0  0  0
    4.3838    0.6706    0.0000 C   0  0  0  0  0  0  0  0  0  0  0  0
    5.1827   -1.6138    0.0000 N   0  0  0  0  0  0  0  0  0  0  0  0
    4.3381   -2.1857    0.0000 H   0  0  0  0  0  0  0  0  0  0  0  0
    6.1003   -2.0593    0.0000 H   0  0  0  0  0  0  0  0  0  0  0  0
  1  2  1  0  0  0  0
  1  6  1  0  0  0  0
  2  3  1  0  0  0  0
  3  4  1  0  0  0  0
  4  5  1  0  0  0  0
  4  7  1  0  0  0  0
  5  6  1  0  0  0  0
  7  8  1  0  0  0  0
  7  9  1  0  0  0  0
M  END
$$$$
Fc1cnc(c(c1)F)N
 OpenBabel07182308452D

 11 11  0  0  0  0  0  0  0  0999 V2000
    1.4289    0.8250    0.0000 C   0  0  0  0  0  0  0  0  0  0  0  0
    2.1434    1.2375    0.0000 C   0  0  0  0  0  0  0  0  0  0  0  0
    2.1434    2.0625    0.0000 C   0  0  0  0  0  0  0  0  0  0  0  0
    1.4289    2.4750    0.0000 C   0  0  0  0  0  0  0  0  0  0  0  0
    0.7145    2.0625    0.0000 C   0  0  0  0  0  0  0  0  0  0  0  0
    0.7145    1.2375    0.0000 N   0  0  0  0  0  0  0  0  0  0  0  0
    0.0000    2.4750    0.0000 N   0  0  0  0  0  0  0  0  0  0  0  0
    1.4289    3.3000    0.0000 F   0  0  0  0  0  0  0  0  0  0  0  0
    2.8579    0.8250    0.0000 F   0  0  0  0  0  0  0  0  0  0  0  0
   -0.0000    3.4595    0.0000 H   0  0  0  0  0  0  0  0  0  0  0  0
   -0.8526    1.9827    0.0000 H   0  0  0  0  0  0  0  0  0  0  0  0
  1  2  2  0  0  0  0
  1  6  1  0  0  0  0
  2  3  1  0  0  0  0
  2  9  1  0  0  0  0
  3  4  2  0  0  0  0
  4  5  1  0  0  0  0
  4  8  1  0  0  0  0
  5  6  2  0  0  0  0
  5  7  1  0  0  0  0
  7 10  1  0  0  0  0
  7 11  1  0  0  0  0
M  END
$$$$
Cc1ncc(c(n1)C)O
 OpenBabel07182308452D

  9  9  0  0  0  0  0  0  0  0999 V2000
   -0.7268   -0.4828    0.0000 O   0  0  0  0  0  0  0  0  0  0  0  0
   -1.4416   -0.8948    0.0000 C   0  0  0  0  0  0  0  0  0  0  0  0
   -2.1566   -0.4828    0.0000 C   0  0  0  0  0  0  0  0  0  0  0  0
   -2.8716   -0.8948    0.0000 N   0  0  0  0  0  0  0  0  0  0  0  0
   -2.8716   -1.7185    0.0000 C   0  0  0  0  0  0  0  0  0  0  0  0
   -2.1566   -2.1305    0.0000 N   0  0  0  0  0  0  0  0  0  0  0  0
   -1.4416   -1.7185    0.0000 C   0  0  0  0  0  0  0  0  0  0  0  0
   -3.5865   -2.1305    0.0000 C   0  0  0  0  0  0  0  0  0  0  0  0
   -2.1566    0.3456    0.0000 C   0  0  0  0  0  0  0  0  0  0  0  0
  1  2  1  0  0  0  0
  2  7  2  0  0  0  0
  3  2  1  0  0  0  0
  3  9  1  0  0  0  0
  4  3  2  0  0  0  0
  5  4  1  0  0  0  0
  5  6  2  0  0  0  0
  5  8  1  0  0  0  0
  7  6  1  0  0  0  0
M  END
$$$$
Fc1cccnc1
 OpenBabel07182308452D

  7  7  0  0  0  0  0  0  0  0999 V2000
    2.3507   -1.0841    0.0000 C   0  0  0  0  0  0  0  0  0  0  0  0
    3.1746   -1.0841    0.0000 C   0  0  0  0  0  0  0  0  0  0  0  0
    3.5865   -1.7991    0.0000 C   0  0  0  0  0  0  0  0  0  0  0  0
    3.1746   -2.5142    0.0000 C   0  0  0  0  0  0  0  0  0  0  0  0
    2.3507   -2.5142    0.0000 C   0  0  0  0  0  0  0  0  0  0  0  0
    1.9389   -1.7991    0.0000 N   0  0  0  0  0  0  0  0  0  0  0  0
    3.5865   -3.2289    0.0000 F   0  0  0  0  0  0  0  0  0  0  0  0
  1  2  1  0  0  0  0
  1  6  2  0  0  0  0
  2  3  2  0  0  0  0
  3  4  1  0  0  0  0
  4  5  2  0  0  0  0
  4  7  1  0  0  0  0
  5  6  1  0  0  0  0
M  END
$$$$
Clc1cccc2c1c(=O)[nH]cc2
 OpenBabel07182308452D

 12 13  0  0  1  0  0  0  0  0999 V2000
    5.4223   -7.4250    0.0000 C   0  0  0  0  0  0  0  0  0  0  0  0
    6.1368   -7.8375    0.0000 C   0  0  0  0  0  0  0  0  0  0  0  0
    6.1368   -8.6625    0.0000 C   0  0  0  0  0  0  0  0  0  0  0  0
    6.8513   -9.0750    0.0000 C   0  0  0  0  0  0  0  0  0  0  0  0
    6.8513   -9.9000    0.0000 C   0  0  0  0  0  0  0  0  0  0  0  0
    6.1368  -10.3125    0.0000 C   0  0  0  0  0  0  0  0  0  0  0  0
    5.4223   -9.9000    0.0000 C   0  0  0  0  0  0  0  0  0  0  0  0
    5.4223   -9.0750    0.0000 C   0  0  0  0  0  0  0  0  0  0  0  0
    4.7079   -8.6625    0.0000 C   0  0  0  0  0  0  0  0  0  0  0  0
    3.9934   -9.0750    0.0000 O   0  0  0  0  0  0  0  0  0  0  0  0
    4.7079   -7.8375    0.0000 N   0  0  0  0  0  0  0  0  0  0  0  0
    4.7079  -10.3125    0.0000 Cl  0  0  0  0  0  0  0  0  0  0  0  0
  1  2  2  0  0  0  0
  1 11  1  0  0  0  0
  2  3  1  0  0  0  0
  3  4  2  0  0  0  0
  3  8  1  0  0  0  0
  4  5  1  0  0  0  0
  5  6  2  0  0  0  0
  6  7  1  0  0  0  0
  7  8  2  0  0  0  0
  7 12  1  0  0  0  0
  8  9  1  0  0  0  0
  9 10  2  0  0  0  0
  9 11  1  0  0  0  0
M  END
$$$$
c1ncc2c(n1)[nH]cn2
 OpenBabel07182308452D

 10 11  0  0  1  0  0  0  0  0999 V2000
    4.7079   -5.3625    0.0000 C   0  0  0  0  0  0  0  0  0  0  0  0
    3.9934   -4.9500    0.0000 C   0  0  0  0  0  0  0  0  0  0  0  0
    3.9934   -4.1250    0.0000 C   0  0  0  0  0  0  0  0  0  0  0  0
    3.2088   -3.8701    0.0000 N   0  0  0  0  0  0  0  0  0  0  0  0
    2.7239   -4.5375    0.0000 C   0  0  0  0  0  0  0  0  0  0  0  0
    3.2088   -5.2049    0.0000 N   0  0  0  0  0  0  0  0  0  0  0  0
    4.7079   -3.7125    0.0000 N   0  0  0  0  0  0  0  0  0  0  0  0
    5.4223   -4.1250    0.0000 C   0  0  0  0  0  0  0  0  0  0  0  0
    5.4223   -4.9500    0.0000 N   0  0  0  0  0  0  0  0  0  0  0  0
    2.9046   -2.9338    0.0000 H   0  0  0  0  0  0  0  0  0  0  0  0
  1  2  2  0  0  0  0
  1  9  1  0  0  0  0
  2  3  1  0  0  0  0
  2  6  1  0  0  0  0
  3  4  1  0  0  0  0
  3  7  2  0  0  0  0
  4  5  1  0  0  0  0
  4 10  1  0  0  0  0
  5  6  2  0  0  0  0
  7  8  1  0  0  0  0
  8  9  2  0  0  0  0
M  END
$$$$
Cc1cc(=O)[nH]c(=O)n1C
 OpenBabel07182308452D

 10 10  0  0  0  0  0  0  0  0999 V2000
   -0.7152    1.3879    0.0000 C   0  0  0  0  0  0  0  0  0  0  0  0
   -0.7160    0.5629    0.0000 C   0  0  0  0  0  0  0  0  0  0  0  0
   -0.0019    0.1497    0.0000 N   0  0  0  0  0  0  0  0  0  0  0  0
    0.7128    0.5615    0.0000 C   0  0  0  0  0  0  0  0  0  0  0  0
    0.7136    1.3865    0.0000 N   0  0  0  0  0  0  0  0  0  0  0  0
   -0.0003    1.7997    0.0000 C   0  0  0  0  0  0  0  0  0  0  0  0
    0.0004    2.6247    0.0000 O   0  0  0  0  0  0  0  0  0  0  0  0
    1.4269    0.1483    0.0000 O   0  0  0  0  0  0  0  0  0  0  0  0
   -0.0028   -0.6752    0.0000 C   0  0  0  0  0  0  0  0  0  0  0  0
   -1.0603    0.3804    0.0000 C   0  0  0  0  0  0  0  0  0  0  0  0
  1  6  1  0  0  0  0
  1  2  2  0  0  0  0
  2  3  1  0  0  0  0
  2 10  1  0  0  0  0
  3  4  1  0  0  0  0
  3  9  1  0  0  0  0
  4  5  1  0  0  0  0
  4  8  2  0  0  0  0
  5  6  1  0  0  0  0
  6  7  2  0  0  0  0
M  END
$$$$
C1CCCOC1
 OpenBabel07182308452D

  6  6  0  0  0  0  0  0  0  0999 V2000
   -2.3441    1.4402    0.0000 C   0  0  0  0  0  0  0  0  0  0  0  0
   -2.8961    0.8271    0.0000 C   0  0  0  0  0  0  0  0  0  0  0  0
   -3.7031    0.9987    0.0000 C   0  0  0  0  0  0  0  0  0  0  0  0
   -3.9580    1.7833    0.0000 O   0  0  0  0  0  0  0  0  0  0  0  0
   -3.4060    2.3964    0.0000 C   0  0  0  0  0  0  0  0  0  0  0  0
   -2.5990    2.2248    0.0000 C   0  0  0  0  0  0  0  0  0  0  0  0
  1  2  1  0  0  0  0
  1  6  1  0  0  0  0
  2  3  1  0  0  0  0
  3  4  1  0  0  0  0
  4  5  1  0  0  0  0
  5  6  1  0  0  0  0
M  END
$$$$
Cc1ccc2c(c1)cn[nH]2
 OpenBabel07182308452D

 11 12  0  0  0  0  0  0  0  0999 V2000
    1.1387   -0.0305    0.0000 C   0  0  0  0  0  0  0  0  0  0  0  0
    1.9233   -0.2854    0.0000 C   0  0  0  0  0  0  0  0  0  0  0  0
    2.6378    0.1271    0.0000 C   0  0  0  0  0  0  0  0  0  0  0  0
    3.3523   -0.2854    0.0000 C   0  0  0  0  0  0  0  0  0  0  0  0
    3.3523   -1.1104    0.0000 C   0  0  0  0  0  0  0  0  0  0  0  0
    2.6378   -1.5229    0.0000 C   0  0  0  0  0  0  0  0  0  0  0  0
    1.9233   -1.1104    0.0000 C   0  0  0  0  0  0  0  0  0  0  0  0
    1.1387   -1.3654    0.0000 N   0  0  0  0  0  0  0  0  0  0  0  0
    0.6538   -0.6979    0.0000 N   0  0  0  0  0  0  0  0  0  0  0  0
    4.0668    0.1271    0.0000 C   0  0  0  0  0  0  0  0  0  0  0  0
    0.8345   -2.3017    0.0000 H   0  0  0  0  0  0  0  0  0  0  0  0
  1  2  1  0  0  0  0
  1  9  2  0  0  0  0
  2  3  2  0  0  0  0
  2  7  1  0  0  0  0
  3  4  1  0  0  0  0
  4  5  2  0  0  0  0
  4 10  1  0  0  0  0
  5  6  1  0  0  0  0
  6  7  2  0  0  0  0
  7  8  1  0  0  0  0
  8  9  1  0  0  0  0
  8 11  1  0  0  0  0
M  END
$$$$
Oc1cccc2c1C(=O)c1ccccc1C2=O
 OpenBabel07182308452D

 17 19  0  0  0  0  0  0  0  0999 V2000
    2.1434   -2.8875    0.0000 C   0  0  0  0  0  0  0  0  0  0  0  0
    1.4289   -2.4750    0.0000 C   0  0  0  0  0  0  0  0  0  0  0  0
    1.4289   -1.6500    0.0000 C   0  0  0  0  0  0  0  0  0  0  0  0
    2.1434   -1.2375    0.0000 C   0  0  0  0  0  0  0  0  0  0  0  0
    2.8579   -1.6500    0.0000 C   0  0  0  0  0  0  0  0  0  0  0  0
    3.5724   -1.2375    0.0000 C   0  0  0  0  0  0  0  0  0  0  0  0
    3.5724   -0.4125    0.0000 O   0  0  0  0  0  0  0  0  0  0  0  0
    4.2868   -1.6500    0.0000 C   0  0  0  0  0  0  0  0  0  0  0  0
    5.0013   -1.2375    0.0000 C   0  0  0  0  0  0  0  0  0  0  0  0
    5.7158   -1.6500    0.0000 C   0  0  0  0  0  0  0  0  0  0  0  0
    5.7158   -2.4750    0.0000 C   0  0  0  0  0  0  0  0  0  0  0  0
    5.0013   -2.8875    0.0000 C   0  0  0  0  0  0  0  0  0  0  0  0
    5.0013   -3.7125    0.0000 O   0  0  0  0  0  0  0  0  0  0  0  0
    4.2868   -2.4750    0.0000 C   0  0  0  0  0  0  0  0  0  0  0  0
    3.5724   -2.8875    0.0000 C   0  0  0  0  0  0  0  0  0  0  0  0
    3.5724   -3.7125    0.0000 O   0  0  0  0  0  0  0  0  0  0  0  0
    2.8579   -2.4750    0.0000 C   0  0  0  0  0  0  0  0  0  0  0  0
  1  2  2  0  0  0  0
  1 17  1  0  0  0  0
  2  3  1  0  0  0  0
  3  4  2  0  0  0  0
  4  5  1  0  0  0  0
  5  6  1  0  0  0  0
  5 17  2  0  0  0  0
  6  7  2  0  0  0  0
  6  8  1  0  0  0  0
  8  9  2  0  0  0  0
  8 14  1  0  0  0  0
  9 10  1  0  0  0  0
 10 11  2  0  0  0  0
 11 12  1  0  0  0  0
 12 13  1  0  0  0  0
 12 14  2  0  0  0  0
 14 15  1  0  0  0  0
 15 16  2  0  0  0  0
 15 17  1  0  0  0  0
M  END
$$$$
Clc1cscc1
 OpenBabel07182308452D

  6  6  0  0  0  0  0  0  0  0999 V2000
    1.6119   -5.6495    0.0000 C   0  0  0  0  0  0  0  0  0  0  0  0
    2.4369   -5.6495    0.0000 C   0  0  0  0  0  0  0  0  0  0  0  0
    2.6918   -6.4341    0.0000 C   0  0  0  0  0  0  0  0  0  0  0  0
    2.0244   -6.9190    0.0000 C   0  0  0  0  0  0  0  0  0  0  0  0
    1.3570   -6.4341    0.0000 S   0  0  0  0  0  0  0  0  0  0  0  0
    3.4765   -6.6890    0.0000 Cl  0  0  0  0  0  0  0  0  0  0  0  0
  1  2  2  0  0  0  0
  1  5  1  0  0  0  0
  2  3  1  0  0  0  0
  3  4  2  0  0  0  0
  3  6  1  0  0  0  0
  4  5  1  0  0  0  0
M  END
$$$$
Cc1nc2c([nH]1)cccc2F
 OpenBabel07182308452D

 11 12  0  0  0  0  0  0  0  0999 V2000
    2.0701    1.1104    0.0000 C   0  0  0  0  0  0  0  0  0  0  0  0
    1.3556    0.6979    0.0000 C   0  0  0  0  0  0  0  0  0  0  0  0
    0.6411    1.1104    0.0000 C   0  0  0  0  0  0  0  0  0  0  0  0
    0.6411    1.9354    0.0000 C   0  0  0  0  0  0  0  0  0  0  0  0
    1.3556    2.3479    0.0000 C   0  0  0  0  0  0  0  0  0  0  0  0
    2.0701    1.9354    0.0000 C   0  0  0  0  0  0  0  0  0  0  0  0
    1.3556    3.1729    0.0000 F   0  0  0  0  0  0  0  0  0  0  0  0
   -0.1435    2.1904    0.0000 N   0  0  0  0  0  0  0  0  0  0  0  0
   -0.6284    1.5229    0.0000 C   0  0  0  0  0  0  0  0  0  0  0  0
   -0.1435    0.8555    0.0000 N   0  0  0  0  0  0  0  0  0  0  0  0
   -1.4534    1.5229    0.0000 C   0  0  0  0  0  0  0  0  0  0  0  0
  1  2  1  0  0  0  0
  1  6  2  0  0  0  0
  2  3  2  0  0  0  0
  3  4  1  0  0  0  0
  3 10  1  0  0  0  0
  4  5  2  0  0  0  0
  4  8  1  0  0  0  0
  5  6  1  0  0  0  0
  5  7  1  0  0  0  0
  8  9  2  0  0  0  0
  9 10  1  0  0  0  0
  9 11  1  0  0  0  0
M  END
$$$$
Nc1ccc2c(n1)N(C)C(=O)C(O2)(C)C
 OpenBabel07182308452D

 16 17  0  0  0  0  0  0  0  0999 V2000
   -3.1599    2.0609    0.0000 C   0  0  0  0  0  0  0  0  0  0  0  0
   -3.1599    1.2359    0.0000 N   0  0  0  0  0  0  0  0  0  0  0  0
   -3.8743    0.8234    0.0000 C   0  0  0  0  0  0  0  0  0  0  0  0
   -3.8743   -0.0015    0.0000 C   0  0  0  0  0  0  0  0  0  0  0  0
   -3.1599   -0.4140    0.0000 O   0  0  0  0  0  0  0  0  0  0  0  0
   -2.4453   -0.0015    0.0000 C   0  0  0  0  0  0  0  0  0  0  0  0
   -2.4453    0.8234    0.0000 C   0  0  0  0  0  0  0  0  0  0  0  0
   -1.7309   -0.4140    0.0000 C   0  0  0  0  0  0  0  0  0  0  0  0
   -1.0163   -0.0015    0.0000 C   0  0  0  0  0  0  0  0  0  0  0  0
   -1.0163    0.8234    0.0000 C   0  0  0  0  0  0  0  0  0  0  0  0
   -1.7309    1.2359    0.0000 N   0  0  0  0  0  0  0  0  0  0  0  0
   -4.5888    1.2359    0.0000 O   0  0  0  0  0  0  0  0  0  0  0  0
   -4.6993   -0.0015    0.0000 C   0  0  0  0  0  0  0  0  0  0  0  0
   -4.0879   -0.7984    0.0000 C   0  0  0  0  0  0  0  0  0  0  0  0
   -0.3020    1.2359    0.0000 N   0  0  0  0  0  0  0  0  0  0  0  0
   -0.3021    2.2204    0.0000 H   0  0  0  0  0  0  0  0  0  0  0  0
  1  2  1  0  0  0  0
  2  3  1  0  0  0  0
  3 12  2  0  0  0  0
  3  4  1  0  0  0  0
  4 13  1  0  0  0  0
  4 14  1  0  0  0  0
  4  5  1  0  0  0  0
  5  6  1  0  0  0  0
  6  7  2  0  0  0  0
  6  8  1  0  0  0  0
  7  2  1  0  0  0  0
  8  9  2  0  0  0  0
  9 10  1  0  0  0  0
 10 11  2  0  0  0  0
 10 15  1  0  0  0  0
 11  7  1  0  0  0  0
 15 16  1  0  0  0  0
M  END
$$$$
Fc1cnc(nc1)N
 OpenBabel07182308452D

  9  9  0  0  0  0  0  0  0  0999 V2000
    0.4125    0.8234    0.0000 C   0  0  0  0  0  0  0  0  0  0  0  0
    0.4125   -0.0015    0.0000 N   0  0  0  0  0  0  0  0  0  0  0  0
    1.1270   -0.4140    0.0000 C   0  0  0  0  0  0  0  0  0  0  0  0
    1.8414   -0.0015    0.0000 N   0  0  0  0  0  0  0  0  0  0  0  0
    1.8414    0.8234    0.0000 C   0  0  0  0  0  0  0  0  0  0  0  0
    1.1270    1.2359    0.0000 C   0  0  0  0  0  0  0  0  0  0  0  0
    1.1270    2.0609    0.0000 F   0  0  0  0  0  0  0  0  0  0  0  0
    1.1270   -1.2390    0.0000 N   0  0  0  0  0  0  0  0  0  0  0  0
    0.2744   -1.7312    0.0000 H   0  0  0  0  0  0  0  0  0  0  0  0
  1  2  2  0  0  0  0
  2  3  1  0  0  0  0
  3  4  2  0  0  0  0
  3  8  1  0  0  0  0
  4  5  1  0  0  0  0
  5  6  2  0  0  0  0
  6  1  1  0  0  0  0
  6  7  1  0  0  0  0
  8  9  1  0  0  0  0
M  END
$$$$
Cc1csc(n1)N
 OpenBabel07182308452D

  8  8  0  0  0  0  0  0  0  0999 V2000
    0.3875    1.0924    0.0000 C   0  0  0  0  0  0  0  0  0  0  0  0
    0.3875    0.2674    0.0000 C   0  0  0  0  0  0  0  0  0  0  0  0
    1.0549   -0.2174    0.0000 C   0  0  0  0  0  0  0  0  0  0  0  0
    0.8000   -1.0020    0.0000 S   0  0  0  0  0  0  0  0  0  0  0  0
   -0.0249   -1.0020    0.0000 C   0  0  0  0  0  0  0  0  0  0  0  0
   -0.2799   -0.2174    0.0000 N   0  0  0  0  0  0  0  0  0  0  0  0
   -0.5099   -1.6695    0.0000 N   0  0  0  0  0  0  0  0  0  0  0  0
   -0.1095   -2.5689    0.0000 H   0  0  0  0  0  0  0  0  0  0  0  0
  1  2  1  0  0  0  0
  2  3  2  0  0  0  0
  3  4  1  0  0  0  0
  4  5  1  0  0  0  0
  5  6  2  0  0  0  0
  5  7  1  0  0  0  0
  6  2  1  0  0  0  0
  7  8  1  0  0  0  0
M  END
$$$$
N=C1NC(=O)C(=C)S1
 OpenBabel07182308452D

  8  8  0  0  1  0  0  0  0  0999 V2000
   -5.3519   -5.9586    0.0000 N   0  0  0  0  0  0  0  0  0  0  0  0
   -5.0164   -5.2049    0.0000 C   0  0  0  0  0  0  0  0  0  0  0  0
   -5.4289   -4.4905    0.0000 N   0  0  0  0  0  0  0  0  0  0  0  0
   -4.8768   -3.8774    0.0000 C   0  0  0  0  0  0  0  0  0  0  0  0
   -5.0484   -3.0704    0.0000 O   0  0  0  0  0  0  0  0  0  0  0  0
   -4.1232   -4.2129    0.0000 C   0  0  0  0  0  0  0  0  0  0  0  0
   -3.4087   -3.8004    0.0000 C   0  0  0  0  0  0  0  0  0  0  0  0
   -4.2094   -5.0334    0.0000 S   0  0  0  0  0  0  0  0  0  0  0  0
  1  2  2  0  0  0  0
  2  3  1  0  0  0  0
  2  8  1  0  0  0  0
  3  4  1  0  0  0  0
  4  5  2  0  0  0  0
  4  6  1  0  0  0  0
  6  7  2  0  0  0  0
  6  8  1  0  0  0  0
M  END
$$$$
O=C1NC(=O)[C@@H]2[C@H]1[C@@H]1C=C[C@H]2[C@@H]2[C@H]1C2
 OpenBabel07182308452D

 14 17  0  0  1  0  0  0  0  0999 V2000
    4.1274    1.2375    0.0000 N   0  0  0  0  0  0  0  0  0  0  0  0
    3.6425    0.5701    0.0000 C   0  0  0  0  0  0  0  0  0  0  0  0
    3.8974   -0.2146    0.0000 O   0  0  0  0  0  0  0  0  0  0  0  0
    2.8579    0.8250    0.0000 C   0  0  2  0  0  0  0  0  0  0  0  0
    2.1434    0.4125    0.0000 C   0  0  2  0  0  0  0  0  0  0  0  0
    2.0059    0.9625    0.0000 C   0  0  0  0  0  0  0  0  0  0  0  0
    2.0059    1.5125    0.0000 C   0  0  0  0  0  0  0  0  0  0  0  0
    2.1434    2.0625    0.0000 C   0  0  2  0  0  0  0  0  0  0  0  0
    2.8579    1.6500    0.0000 C   0  0  2  0  0  0  0  0  0  0  0  0
    3.6425    1.9049    0.0000 C   0  0  0  0  0  0  0  0  0  0  0  0
    3.8974    2.6896    0.0000 O   0  0  0  0  0  0  0  0  0  0  0  0
    1.4289    1.6500    0.0000 C   0  0  2  0  0  0  0  0  0  0  0  0
    1.4289    0.8250    0.0000 C   0  0  1  0  0  0  0  0  0  0  0  0
    0.7145    1.2375    0.0000 C   0  0  0  0  0  0  0  0  0  0  0  0
  1  2  1  0  0  0  0
  1 10  1  0  0  0  0
  2  3  2  0  0  0  0
  4  2  1  6  0  0  0
  4  5  1  0  0  0  0
  4  9  1  0  0  0  0
  5  6  1  6  0  0  0
  5 13  1  0  0  0  0
  6  7  2  0  0  0  0
  8  7  1  6  0  0  0
  8  9  1  0  0  0  0
  8 12  1  0  0  0  0
  9 10  1  6  0  0  0
 10 11  2  0  0  0  0
 12 13  1  0  0  0  0
 12 14  1  6  0  0  0
 13 14  1  6  0  0  0
M  END
$$$$
O=C1NCC(=O)N2CC[C@H](C2)Oc2nc3ccccc3nc2C(CCCC[C@H]2[C@H](O1)C2)(F)F
 OpenBabel07182308452D

 34 38  0  0  1  0  0  0  0  0999 V2000
    2.2448   -1.0980    0.0000 C   0  0  0  0  0  0  0  0  0  0  0  0
    2.8579   -1.6500    0.0000 C   0  0  2  0  0  0  0  0  0  0  0  0
    3.5724   -1.2375    0.0000 C   0  0  0  0  0  0  0  0  0  0  0  0
    3.5724   -0.4125    0.0000 N   0  0  0  0  0  0  0  0  0  0  0  0
    2.5803   -0.3443    0.0000 C   0  0  0  0  0  0  0  0  0  0  0  0
    4.2868   -0.0000    0.0000 C   0  0  0  0  0  0  0  0  0  0  0  0
    4.2868    0.8250    0.0000 O   0  0  0  0  0  0  0  0  0  0  0  0
    5.0013   -0.4125    0.0000 C   0  0  0  0  0  0  0  0  0  0  0  0
    5.0013   -1.2375    0.0000 N   0  0  0  0  0  0  0  0  0  0  0  0
    5.7158   -1.6500    0.0000 C   0  0  0  0  0  0  0  0  0  0  0  0
    6.4302   -1.2375    0.0000 O   0  0  0  0  0  0  0  0  0  0  0  0
    5.7158   -2.4750    0.0000 O   0  0  0  0  0  0  0  0  0  0  0  0
    6.4302   -2.8875    0.0000 C   0  0  2  0  0  0  0  0  0  0  0  0
    7.1447   -3.3000    0.0000 C   0  0  0  0  0  0  0  0  0  0  0  0
    6.4302   -3.7125    0.0000 C   0  0  1  0  0  0  0  0  0  0  0  0
    5.7158   -4.1250    0.0000 C   0  0  0  0  0  0  0  0  0  0  0  0
    5.7158   -4.9500    0.0000 C   0  0  0  0  0  0  0  0  0  0  0  0
    5.0013   -5.3625    0.0000 C   0  0  0  0  0  0  0  0  0  0  0  0
    4.2868   -4.9500    0.0000 C   0  0  0  0  0  0  0  0  0  0  0  0
    4.2868   -4.1250    0.0000 C   0  0  0  0  0  0  0  0  0  0  0  0
    3.5724   -3.7125    0.0000 C   0  0  0  0  0  0  0  0  0  0  0  0
    3.5724   -2.8875    0.0000 C   0  0  0  0  0  0  0  0  0  0  0  0
    2.9485   -2.1369    0.0000 N   0  0  0  0  0  0  0  0  0  0  0  0
    2.1434   -2.8875    0.0000 C   0  0  0  0  0  0  0  0  0  0  0  0
    1.4289   -2.4750    0.0000 C   0  0  0  0  0  0  0  0  0  0  0  0
    0.7145   -2.8875    0.0000 C   0  0  0  0  0  0  0  0  0  0  0  0
    0.7145   -3.7125    0.0000 C   0  0  0  0  0  0  0  0  0  0  0  0
    1.4289   -4.1250    0.0000 C   0  0  0  0  0  0  0  0  0  0  0  0
    2.1434   -3.7125    0.0000 C   0  0  0  0  0  0  0  0  0  0  0  0
    2.8579   -4.1250    0.0000 N   0  0  0  0  0  0  0  0  0  0  0  0
    2.8579   -2.4750    0.0000 O   0  0  0  0  0  0  0  0  0  0  0  0
    3.6934   -4.6981    0.0000 F   0  0  0  0  0  0  0  0  0  0  0  0
    3.4938   -4.3524    0.0000 F   0  0  0  0  0  0  0  0  0  0  0  0
    4.1487   -1.7298    0.0000 H   0  0  0  0  0  0  0  0  0  0  0  0
  1  5  1  0  0  0  0
  2  1  1  6  0  0  0
  2  3  1  0  0  0  0
  2 31  1  0  0  0  0
  3  4  1  0  0  0  0
  4  5  1  0  0  0  0
  4  6  1  0  0  0  0
  6  7  2  0  0  0  0
  6  8  1  0  0  0  0
  8  9  1  0  0  0  0
  9 10  1  0  0  0  0
  9 34  1  0  0  0  0
 10 11  2  0  0  0  0
 10 12  1  0  0  0  0
 12 13  1  0  0  0  0
 13 14  1  6  0  0  0
 13 15  1  0  0  0  0
 15 14  1  1  0  0  0
 15 16  1  0  0  0  0
 16 17  1  0  0  0  0
 17 18  1  0  0  0  0
 18 19  1  0  0  0  0
 19 20  1  0  0  0  0
 20 21  1  0  0  0  0
 20 32  1  0  0  0  0
 20 33  1  0  0  0  0
 21 22  2  0  0  0  0
 21 30  1  0  0  0  0
 22 23  1  0  0  0  0
 22 31  1  0  0  0  0
 23 24  2  0  0  0  0
 24 25  1  0  0  0  0
 24 29  1  0  0  0  0
 25 26  2  0  0  0  0
 26 27  1  0  0  0  0
 27 28  2  0  0  0  0
 28 29  1  0  0  0  0
 29 30  2  0  0  0  0
M  END
$$$$
OC1=CC(=O)[C@@]2([C@H](C1)C[C@@H]1Cc3c(C)ccc(c3C(=O)C1=C2O)O)O
 OpenBabel07182308452D

 31 34  0  0  0  0  0  0  0  0999 V2000
   -2.1432    1.4290    0.0000 C   0  0  0  0  0  0  0  0  0  0  0  0
   -2.8577    1.0165    0.0000 C   0  0  0  0  0  0  0  0  0  0  0  0
   -2.8577    0.1915    0.0000 C   0  0  0  0  0  0  0  0  0  0  0  0
   -2.1433   -0.2209    0.0000 C   0  0  0  0  0  0  0  0  0  0  0  0
   -1.4289    0.1915    0.0000 C   0  0  0  0  0  0  0  0  0  0  0  0
   -1.4289    1.0165    0.0000 C   0  0  0  0  0  0  0  0  0  0  0  0
   -0.7143    1.4290    0.0000 C   0  0  0  0  0  0  0  0  0  0  0  0
   -0.7144   -0.2209    0.0000 C   0  0  0  0  0  0  0  0  0  0  0  0
    0.0000    0.1914    0.0000 C   0  0  2  0  0  0  0  0  0  0  0  0
    0.0000    1.0164    0.0000 C   0  0  0  0  0  0  0  0  0  0  0  0
    0.7145    1.4289    0.0000 C   0  0  0  0  0  0  0  0  0  0  0  0
    0.7144   -0.2210    0.0000 C   0  0  0  0  0  0  0  0  0  0  0  0
    1.4289    0.2209    0.0000 C   0  0  2  0  0  0  0  0  0  0  0  0
    1.4289    1.0459    0.0000 C   0  0  1  0  0  0  0  0  0  0  0  0
    2.1435    1.4584    0.0000 C   0  0  0  0  0  0  0  0  0  0  0  0
    2.1434   -0.1916    0.0000 C   0  0  0  0  0  0  0  0  0  0  0  0
    2.8577    0.2208    0.0000 C   0  0  0  0  0  0  0  0  0  0  0  0
    2.8577    1.0458    0.0000 C   0  0  0  0  0  0  0  0  0  0  0  0
   -2.1432    2.2540    0.0000 O   0  0  0  0  0  0  0  0  0  0  0  0
   -0.7143    2.2540    0.0000 O   0  0  0  0  0  0  0  0  0  0  0  0
    0.7145    2.2539    0.0000 O   0  0  0  0  0  0  0  0  0  0  0  0
    2.1435    2.2834    0.0000 O   0  0  0  0  0  0  0  0  0  0  0  0
    3.5722   -0.1916    0.0000 O   0  0  0  0  0  0  0  0  0  0  0  0
    1.4289   -0.6040    0.0000 H   0  0  0  0  0  0  0  0  0  0  0  0
    0.0000   -0.6335    0.0000 H   0  0  0  0  0  0  0  0  0  0  0  0
   -2.1433   -1.0459    0.0000 C   0  0  0  0  0  0  0  0  0  0  0  0
    1.4290    1.8708    0.0000 O   0  0  0  0  0  0  0  0  0  0  0  0
   -1.3317    2.7225    0.0000 H   0  0  0  0  0  0  0  0  0  0  0  0
    1.5260    2.7224    0.0000 H   0  0  0  0  0  0  0  0  0  0  0  0
    3.5723   -1.1286    0.0000 H   0  0  0  0  0  0  0  0  0  0  0  0
    2.2691    2.3557    0.0000 H   0  0  0  0  0  0  0  0  0  0  0  0
  1  2  1  0  0  0  0
  1  6  2  0  0  0  0
  1 19  1  0  0  0  0
  2  3  2  0  0  0  0
  3  4  1  0  0  0  0
  4  5  2  0  0  0  0
  4 26  1  0  0  0  0
  5  8  1  0  0  0  0
  6  5  1  0  0  0  0
  7  6  1  0  0  0  0
  7 10  1  0  0  0  0
  7 20  2  0  0  0  0
  8  9  1  0  0  0  0
  9 12  1  0  0  0  0
  9 25  1  1  0  0  0
 10  9  1  0  0  0  0
 11 10  2  0  0  0  0
 11 14  1  0  0  0  0
 11 21  1  0  0  0  0
 12 13  1  0  0  0  0
 13 14  1  1  0  0  0
 13 16  1  0  0  0  0
 13 24  1  0  0  0  0
 14 27  1  1  0  0  0
 15 14  1  0  0  0  0
 15 18  1  0  0  0  0
 15 22  2  0  0  0  0
 16 17  1  0  0  0  0
 17 18  2  0  0  0  0
 17 23  1  0  0  0  0
 19 28  1  0  0  0  0
 21 29  1  0  0  0  0
 23 30  1  0  0  0  0
 27 31  1  0  0  0  0
M  END
$$$$
C[C@@H]1NC=Nc2c1cccc2F
 OpenBabel07182308452D

 12 13  0  0  1  0  0  0  0  0999 V2000
   -0.7145   -1.2374    0.0000 C   0  0  0  0  0  0  0  0  0  0  0  0
    0.0000   -1.6500    0.0000 N   0  0  0  0  0  0  0  0  0  0  0  0
    0.7145   -1.2374    0.0000 C   0  0  0  0  0  0  0  0  0  0  0  0
    0.7145   -0.4125    0.0000 C   0  0  0  0  0  0  0  0  0  0  0  0
    1.4289    0.0000    0.0000 C   0  0  0  0  0  0  0  0  0  0  0  0
    2.1434   -0.4125    0.0000 C   0  0  0  0  0  0  0  0  0  0  0  0
    2.1434   -1.2374    0.0000 C   0  0  0  0  0  0  0  0  0  0  0  0
    1.4289   -1.6500    0.0000 C   0  0  0  0  0  0  0  0  0  0  0  0
    1.4289   -2.4749    0.0000 F   0  0  0  0  0  0  0  0  0  0  0  0
    0.0000    0.0000    0.0000 C   0  0  1  0  0  0  0  0  0  0  0  0
   -0.7145   -0.4125    0.0000 N   0  0  0  0  0  0  0  0  0  0  0  0
    0.0000    0.8250    0.0000 C   0  0  0  0  0  0  0  0  0  0  0  0
  1  2  2  0  0  0  0
  1 11  1  0  0  0  0
  2  3  1  0  0  0  0
  3  4  2  0  0  0  0
  3  8  1  0  0  0  0
  4  5  1  0  0  0  0
  4 10  1  0  0  0  0
  5  6  2  0  0  0  0
  6  7  1  0  0  0  0
  7  8  2  0  0  0  0
  8  9  1  0  0  0  0
 10 11  1  0  0  0  0
 10 12  1  1  0  0  0
M  END
$$$$
[Gd]
 OpenBabel07182308452D

  1  0  0  0  0  0  0  0  0  0999 V2000
    0.0000    0.0000    0.0000 Gd  0  0  0  0  0 15  0  0  0  0  0  0
M  END
$$$$
Cc1cc[nH]n1
 OpenBabel07182308452D

  6  6  0  0  0  0  0  0  0  0999 V2000
    2.8588    1.9008    0.0000 N   0  0  0  0  0  0  0  0  0  0  0  0
    2.1150    1.5603    0.0000 N   0  0  0  0  0  0  0  0  0  0  0  0
    2.7842    2.7153    0.0000 C   0  0  0  0  0  0  0  0  0  0  0  0
    1.5639    2.1743    0.0000 C   0  0  0  0  0  0  0  0  0  0  0  0
    1.9775    2.8882    0.0000 C   0  0  0  0  0  0  0  0  0  0  0  0
    0.9074    2.1064    0.0000 C   0  0  0  0  0  0  0  0  0  0  0  0
  1  3  1  0  0  0  0
  2  1  1  0  0  0  0
  3  5  2  0  0  0  0
  4  2  2  0  0  0  0
  4  6  1  0  0  0  0
  5  4  1  0  0  0  0
M  END
$$$$
C[C@@H]1CC[C@@H](B(O1)O)N
 OpenBabel07182308452D

 11 11  0  0  1  0  0  0  0  0999 V2000
   -4.8946    4.3527    0.0000 B   0  0  0  0  0  0  0  0  0  0  0  0
   -4.8946    3.5277    0.0000 C   0  0  2  0  0  0  0  0  0  0  0  0
   -5.6091    3.1152    0.0000 C   0  0  0  0  0  0  0  0  0  0  0  0
   -6.3235    3.5277    0.0000 C   0  0  0  0  0  0  0  0  0  0  0  0
   -6.3235    4.3527    0.0000 C   0  0  2  0  0  0  0  0  0  0  0  0
   -5.6091    4.7652    0.0000 O   0  0  0  0  0  0  0  0  0  0  0  0
   -7.0380    4.7652    0.0000 C   0  0  0  0  0  0  0  0  0  0  0  0
   -4.1801    3.1152    0.0000 N   0  0  0  0  0  0  0  0  0  0  0  0
   -4.1801    4.7652    0.0000 O   0  0  0  0  0  0  0  0  0  0  0  0
   -3.3275    3.6075    0.0000 H   0  0  0  0  0  0  0  0  0  0  0  0
   -3.3401    4.2802    0.0000 H   0  0  0  0  0  0  0  0  0  0  0  0
  1  2  1  0  0  0  0
  1  6  1  0  0  0  0
  1  9  1  0  0  0  0
  2  3  1  0  0  0  0
  2  8  1  1  0  0  0
  3  4  1  0  0  0  0
  4  5  1  0  0  0  0
  5  6  1  0  0  0  0
  5  7  1  1  0  0  0
  8 10  1  0  0  0  0
  9 11  1  0  0  0  0
M  END
$$$$
N#Cc1n(C)nc2c1c1cnc(c(c1)O[C@H](C)c1c(C(=O)N(C2)C)ccc(c1)F)N
 OpenBabel07182308452D

 32 35  0  0  0  0  0  0  0  0999 V2000
   -0.9639   -1.1379    0.0000 C   0  0  0  0  0  0  0  0  0  0  0  0
    0.6293   -1.1447    0.0000 C   0  0  0  0  0  0  0  0  0  0  0  0
    1.2183   -0.5623    0.0000 C   0  0  0  0  0  0  0  0  0  0  0  0
    1.4326    0.2343    0.0000 C   0  0  0  0  0  0  0  0  0  0  0  0
    1.2183    1.0309    0.0000 C   0  0  0  0  0  0  0  0  0  0  0  0
    0.6360    1.6200    0.0000 N   0  0  0  0  0  0  0  0  0  0  0  0
   -0.1606    1.8342    0.0000 C   0  0  0  0  0  0  0  0  0  0  0  0
   -0.9572    1.6200    0.0000 C   0  0  0  0  0  0  0  0  0  0  0  0
   -1.5464    1.0376    0.0000 C   0  0  0  0  0  0  0  0  0  0  0  0
   -1.7606    0.2409    0.0000 C   0  0  2  0  0  0  0  0  0  0  0  0
   -1.5464   -0.5556    0.0000 O   0  0  0  0  0  0  0  0  0  0  0  0
   -0.1539    2.6576    0.0000 O   0  0  0  0  0  0  0  0  0  0  0  0
   -1.1715    2.4233    0.0000 C   0  0  0  0  0  0  0  0  0  0  0  0
   -1.9681    2.6376    0.0000 C   0  0  0  0  0  0  0  0  0  0  0  0
   -2.5505    2.0551    0.0000 C   0  0  0  0  0  0  0  0  0  0  0  0
   -2.3430    1.2585    0.0000 C   0  0  0  0  0  0  0  0  0  0  0  0
   -3.3472    2.2694    0.0000 F   0  0  0  0  0  0  0  0  0  0  0  0
    1.0510    2.3296    0.0000 C   0  0  0  0  0  0  0  0  0  0  0  0
   -2.5840    0.2476    0.0000 C   0  0  0  0  0  0  0  0  0  0  0  0
    1.9079   -1.0175    0.0000 C   0  0  0  0  0  0  0  0  0  0  0  0
    2.5505   -0.4953    0.0000 N   0  0  0  0  0  0  0  0  0  0  0  0
    2.2560    0.2343    0.0000 N   0  0  0  0  0  0  0  0  0  0  0  0
   -0.9639   -2.0418    0.0000 C   0  0  0  0  0  0  0  0  0  0  0  0
   -0.1807   -2.4970    0.0000 N   0  0  0  0  0  0  0  0  0  0  0  0
    0.5957   -2.0418    0.0000 C   0  0  0  0  0  0  0  0  0  0  0  0
   -0.1807   -0.6895    0.0000 C   0  0  0  0  0  0  0  0  0  0  0  0
   -1.7471   -2.4970    0.0000 N   0  0  0  0  0  0  0  0  0  0  0  0
    3.3472   -0.7028    0.0000 C   0  0  0  0  0  0  0  0  0  0  0  0
    1.9480   -1.8342    0.0000 C   0  0  0  0  0  0  0  0  0  0  0  0
    1.9882   -2.6576    0.0000 N   0  0  0  0  0  0  0  0  0  0  0  0
   -2.6011   -2.0072    0.0000 H   0  0  0  0  0  0  0  0  0  0  0  0
   -1.7443   -3.4815    0.0000 H   0  0  0  0  0  0  0  0  0  0  0  0
  1 11  1  0  0  0  0
  1 23  2  0  0  0  0
  1 26  1  0  0  0  0
  2  3  1  0  0  0  0
  2 25  1  0  0  0  0
  2 26  2  0  0  0  0
  3  4  1  0  0  0  0
  3 20  2  0  0  0  0
  4  5  1  0  0  0  0
  4 22  2  0  0  0  0
  5  6  1  0  0  0  0
  6  7  1  0  0  0  0
  6 18  1  0  0  0  0
  7  8  1  0  0  0  0
  7 12  2  0  0  0  0
  8  9  2  0  0  0  0
  8 13  1  0  0  0  0
  9 10  1  0  0  0  0
  9 16  1  0  0  0  0
 10 11  1  0  0  0  0
 10 19  1  6  0  0  0
 13 14  2  0  0  0  0
 14 15  1  0  0  0  0
 15 16  2  0  0  0  0
 15 17  1  0  0  0  0
 20 21  1  0  0  0  0
 20 29  1  0  0  0  0
 21 22  1  0  0  0  0
 21 28  1  0  0  0  0
 23 24  1  0  0  0  0
 23 27  1  0  0  0  0
 24 25  2  0  0  0  0
 27 31  1  0  0  0  0
 27 32  1  0  0  0  0
 29 30  3  0  0  0  0
M  END
$$$$
Nc1cncc(n1)N
 OpenBabel07182308452D

 10 10  0  0  0  0  0  0  0  0999 V2000
    2.1434   -1.2375    0.0000 C   0  0  0  0  0  0  0  0  0  0  0  0
    2.8579   -1.6500    0.0000 C   0  0  0  0  0  0  0  0  0  0  0  0
    2.8579   -2.4750    0.0000 N   0  0  0  0  0  0  0  0  0  0  0  0
    2.1434   -2.8875    0.0000 C   0  0  0  0  0  0  0  0  0  0  0  0
    1.4289   -2.4750    0.0000 C   0  0  0  0  0  0  0  0  0  0  0  0
    1.4289   -1.6500    0.0000 N   0  0  0  0  0  0  0  0  0  0  0  0
    2.1434   -3.7125    0.0000 N   0  0  0  0  0  0  0  0  0  0  0  0
    3.5724   -1.2375    0.0000 N   0  0  0  0  0  0  0  0  0  0  0  0
    1.2908   -4.2048    0.0000 H   0  0  0  0  0  0  0  0  0  0  0  0
    3.5724   -0.2530    0.0000 H   0  0  0  0  0  0  0  0  0  0  0  0
  1  2  2  0  0  0  0
  1  6  1  0  0  0  0
  2  3  1  0  0  0  0
  2  8  1  0  0  0  0
  3  4  2  0  0  0  0
  4  5  1  0  0  0  0
  4  7  1  0  0  0  0
  5  6  2  0  0  0  0
  7  9  1  0  0  0  0
  8 10  1  0  0  0  0
M  END
$$$$
c1ccc2c(c1)nccn2
 OpenBabel07182308452D

 10 11  0  0  0  0  0  0  0  0999 V2000
    0.7145   -4.5375    0.0000 C   0  0  0  0  0  0  0  0  0  0  0  0
    0.7145   -5.3625    0.0000 C   0  0  0  0  0  0  0  0  0  0  0  0
    1.4289   -5.7750    0.0000 C   0  0  0  0  0  0  0  0  0  0  0  0
    2.1434   -5.3625    0.0000 C   0  0  0  0  0  0  0  0  0  0  0  0
    2.1434   -4.5375    0.0000 C   0  0  0  0  0  0  0  0  0  0  0  0
    1.4289   -4.1250    0.0000 C   0  0  0  0  0  0  0  0  0  0  0  0
    2.8579   -4.1250    0.0000 N   0  0  0  0  0  0  0  0  0  0  0  0
    3.5724   -4.5375    0.0000 C   0  0  0  0  0  0  0  0  0  0  0  0
    3.5724   -5.3625    0.0000 C   0  0  0  0  0  0  0  0  0  0  0  0
    2.8579   -5.7750    0.0000 N   0  0  0  0  0  0  0  0  0  0  0  0
  1  2  2  0  0  0  0
  1  6  1  0  0  0  0
  2  3  1  0  0  0  0
  3  4  2  0  0  0  0
  4  5  1  0  0  0  0
  4 10  1  0  0  0  0
  5  6  2  0  0  0  0
  5  7  1  0  0  0  0
  7  8  2  0  0  0  0
  8  9  1  0  0  0  0
  9 10  2  0  0  0  0
M  END
$$$$
C([2H])(O)([2H])[2H]
 OpenBabel07182308452D

  5  4  0  0  1  0  0  0  0  0999 V2000
    5.6645   -1.0164    0.0000 H   0  0  0  0  0  0  0  0  0  0  0  0
    5.2520   -0.3020    0.0000 C   0  0  0  0  0  0  0  0  0  0  0  0
    6.0770   -0.3020    0.0000 H   0  0  0  0  0  0  0  0  0  0  0  0
    5.6645    0.4125    0.0000 H   0  0  0  0  0  0  0  0  0  0  0  0
    4.8395    0.4125    0.0000 O   0  0  0  0  0  0  0  0  0  0  0  0
  1  2  1  0  0  0  0
  2  3  1  0  0  0  0
  2  4  1  0  0  0  0
  2  5  1  0  0  0  0
M  ISO  3   1   2   3   2   4   2
M  END
$$$$
O=C1C[C@@H]2N(C[C@@H]1C)CCc1c2cccc1
 OpenBabel07182308452D

 16 18  0  0  1  0  0  0  0  0999 V2000
    4.0145    0.4125    0.0000 C   0  0  0  0  0  0  0  0  0  0  0  0
    3.6020    1.1270    0.0000 C   0  0  0  0  0  0  0  0  0  0  0  0
    2.7770    1.1270    0.0000 C   0  0  0  0  0  0  0  0  0  0  0  0
    2.3645    0.4125    0.0000 C   0  0  0  0  0  0  0  0  0  0  0  0
    2.7770   -0.3020    0.0000 C   0  0  0  0  0  0  0  0  0  0  0  0
    3.6020   -0.3020    0.0000 C   0  0  0  0  0  0  0  0  0  0  0  0
    1.5395    0.4125    0.0000 C   0  0  2  0  0  0  0  0  0  0  0  0
    1.1270   -0.3020    0.0000 C   0  0  0  0  0  0  0  0  0  0  0  0
    0.3020   -0.3020    0.0000 C   0  0  0  0  0  0  0  0  0  0  0  0
   -0.1105   -1.0164    0.0000 O   0  0  0  0  0  0  0  0  0  0  0  0
   -0.1105    0.4125    0.0000 C   0  0  2  0  0  0  0  0  0  0  0  0
    0.3020    1.1270    0.0000 C   0  0  0  0  0  0  0  0  0  0  0  0
    1.1270    1.1270    0.0000 N   0  0  3  0  0  0  0  0  0  0  0  0
    1.5395    1.8414    0.0000 C   0  0  0  0  0  0  0  0  0  0  0  0
    2.3645    1.8414    0.0000 C   0  0  0  0  0  0  0  0  0  0  0  0
   -0.9355    0.4125    0.0000 C   0  0  0  0  0  0  0  0  0  0  0  0
  1  2  2  0  0  0  0
  1  6  1  0  0  0  0
  2  3  1  0  0  0  0
  3  4  2  0  0  0  0
  3 15  1  0  0  0  0
  4  5  1  0  0  0  0
  4  7  1  0  0  0  0
  5  6  2  0  0  0  0
  7  8  1  0  0  0  0
  7 13  1  6  0  0  0
  8  9  1  0  0  0  0
  9 10  2  0  0  0  0
  9 11  1  0  0  0  0
 11 12  1  0  0  0  0
 11 16  1  1  0  0  0
 12 13  1  0  0  0  0
 13 14  1  0  0  0  0
 14 15  1  0  0  0  0
M  END
$$$$
Oc1ccc2c(c1)CC[C@@H]1[C@@H]2CC[C@]2([C@H]1[C@@H](O)[C@H]([C@@H]2O)O)C
 OpenBabel07182308452D

 29 32  0  0  1  0  0  0  0  0999 V2000
   -1.0472   -0.5196    0.0000 C   0  0  0  0  0  0  0  0  0  0  0  0
   -1.0472   -1.3447    0.0000 C   0  0  0  0  0  0  0  0  0  0  0  0
   -1.7618   -0.1070    0.0000 C   0  0  0  0  0  0  0  0  0  0  0  0
   -1.7618   -1.7571    0.0000 C   0  0  0  0  0  0  0  0  0  0  0  0
   -2.4762   -0.5196    0.0000 C   0  0  0  0  0  0  0  0  0  0  0  0
   -2.4762   -1.3447    0.0000 C   0  0  0  0  0  0  0  0  0  0  0  0
   -0.3326   -0.1070    0.0000 C   0  0  2  0  0  0  0  0  0  0  0  0
    0.3816   -0.5197    0.0000 C   0  0  1  0  0  0  0  0  0  0  0  0
   -0.3328   -1.7571    0.0000 C   0  0  0  0  0  0  0  0  0  0  0  0
    0.3816   -1.3447    0.0000 C   0  0  0  0  0  0  0  0  0  0  0  0
   -0.3326    0.7179    0.0000 C   0  0  0  0  0  0  0  0  0  0  0  0
    0.3818    1.1302    0.0000 C   0  0  0  0  0  0  0  0  0  0  0  0
    1.0961   -0.1073    0.0000 C   0  0  1  0  0  0  0  0  0  0  0  0
    1.0962    0.7177    0.0000 C   0  0  1  0  0  0  0  0  0  0  0  0
    1.8808   -0.3622    0.0000 C   0  0  2  0  0  0  0  0  0  0  0  0
    2.3658    0.3050    0.0000 C   0  0  2  0  0  0  0  0  0  0  0  0
    1.8809    0.9725    0.0000 C   0  0  2  0  0  0  0  0  0  0  0  0
   -3.1908   -1.7571    0.0000 O   0  0  0  0  0  0  0  0  0  0  0  0
    3.1908    0.3048    0.0000 O   0  0  0  0  0  0  0  0  0  0  0  0
    2.1356   -1.1469    0.0000 O   0  0  0  0  0  0  0  0  0  0  0  0
    2.1361    1.7571    0.0000 O   0  0  0  0  0  0  0  0  0  0  0  0
    1.1051    1.5830    0.0000 C   0  0  0  0  0  0  0  0  0  0  0  0
    1.0847   -0.8638    0.0000 H   0  0  0  0  0  0  0  0  0  0  0  0
   -0.3570   -0.9046    0.0000 H   0  0  0  0  0  0  0  0  0  0  0  0
    0.3678    0.2784    0.0000 H   0  0  0  0  0  0  0  0  0  0  0  0
   -4.0022   -1.2885    0.0000 H   0  0  0  0  0  0  0  0  0  0  0  0
    3.6756   -0.5354    0.0000 H   0  0  0  0  0  0  0  0  0  0  0  0
    1.4864   -1.8676    0.0000 H   0  0  0  0  0  0  0  0  0  0  0  0
    3.0850    1.9585    0.0000 H   0  0  0  0  0  0  0  0  0  0  0  0
  2  1  1  0  0  0  0
  3  1  2  0  0  0  0
  4  2  2  0  0  0  0
  5  3  1  0  0  0  0
  6  4  1  0  0  0  0
  6  5  2  0  0  0  0
  6 18  1  0  0  0  0
  7  1  1  0  0  0  0
  7  8  1  1  0  0  0
  7 24  1  0  0  0  0
  8 13  1  6  0  0  0
  8 25  1  0  0  0  0
  9  2  1  0  0  0  0
 10  8  1  0  0  0  0
 10  9  1  0  0  0  0
 11  7  1  0  0  0  0
 12 11  1  0  0  0  0
 13 14  1  6  0  0  0
 13 23  1  0  0  0  0
 14 12  1  0  0  0  0
 14 22  1  1  0  0  0
 15 13  1  6  0  0  0
 15 20  1  0  0  0  0
 16 15  1  0  0  0  0
 16 19  1  6  0  0  0
 17 14  1  1  0  0  0
 17 16  1  0  0  0  0
 17 21  1  0  0  0  0
 18 26  1  0  0  0  0
 19 27  1  0  0  0  0
 20 28  1  0  0  0  0
 21 29  1  0  0  0  0
M  END
$$$$
O=C1NN=C(C1)C
 OpenBabel07182308452D

  7  7  0  0  0  0  0  0  0  0999 V2000
    4.5550    0.4885    0.0000 O   0  0  0  0  0  0  0  0  0  0  0  0
    3.1029    0.2586    0.0000 N   0  0  0  0  0  0  0  0  0  0  0  0
    2.4355    0.7436    0.0000 N   0  0  0  0  0  0  0  0  0  0  0  0
    3.5155    1.5281    0.0000 C   0  0  0  0  0  0  0  0  0  0  0  0
    2.6904    1.5281    0.0000 C   0  0  0  0  0  0  0  0  0  0  0  0
    3.7704    0.7436    0.0000 C   0  0  0  0  0  0  0  0  0  0  0  0
    2.2055    2.1956    0.0000 C   0  0  0  0  0  0  0  0  0  0  0  0
  1  6  2  0  0  0  0
  2  3  1  0  0  0  0
  2  6  1  0  0  0  0
  3  5  2  0  0  0  0
  4  5  1  0  0  0  0
  4  6  1  0  0  0  0
  5  7  1  0  0  0  0
M  END
$$$$
Clc1ccc2c(c1)[nH]cn2
 OpenBabel07182308452D

 11 12  0  0  0  0  0  0  0  0999 V2000
    1.3556    0.6979    0.0000 C   0  0  0  0  0  0  0  0  0  0  0  0
    1.3556    2.3479    0.0000 C   0  0  0  0  0  0  0  0  0  0  0  0
    2.0701    1.1104    0.0000 C   0  0  0  0  0  0  0  0  0  0  0  0
    0.6411    1.1104    0.0000 C   0  0  0  0  0  0  0  0  0  0  0  0
    0.6411    1.9354    0.0000 C   0  0  0  0  0  0  0  0  0  0  0  0
    2.0701    1.9354    0.0000 C   0  0  0  0  0  0  0  0  0  0  0  0
   -0.6284    1.5229    0.0000 C   0  0  0  0  0  0  0  0  0  0  0  0
    2.7845    0.6979    0.0000 Cl  0  0  0  0  0  0  0  0  0  0  0  0
   -0.1435    0.8555    0.0000 N   0  0  0  0  0  0  0  0  0  0  0  0
   -0.1435    2.1904    0.0000 N   0  0  0  0  0  0  0  0  0  0  0  0
   -0.4477   -0.0808    0.0000 H   0  0  0  0  0  0  0  0  0  0  0  0
  3  1  2  0  0  0  0
  4  1  1  0  0  0  0
  5  2  1  0  0  0  0
  5  4  2  0  0  0  0
  6  2  2  0  0  0  0
  6  3  1  0  0  0  0
  8  3  1  0  0  0  0
  9  4  1  0  0  0  0
  9  7  1  0  0  0  0
  9 11  1  0  0  0  0
 10  5  1  0  0  0  0
 10  7  2  0  0  0  0
M  END
$$$$
Clc1cncnc1N
 OpenBabel07182308452D

  9  9  0  0  0  0  0  0  0  0999 V2000
   -8.5737  -11.5500    0.0000 C   0  0  0  0  0  0  0  0  0  0  0  0
   -9.2881  -11.1375    0.0000 N   0  0  0  0  0  0  0  0  0  0  0  0
  -10.0026  -11.5500    0.0000 C   0  0  0  0  0  0  0  0  0  0  0  0
  -10.0026  -12.3750    0.0000 C   0  0  0  0  0  0  0  0  0  0  0  0
   -9.2881  -12.7875    0.0000 C   0  0  0  0  0  0  0  0  0  0  0  0
   -8.5737  -12.3750    0.0000 N   0  0  0  0  0  0  0  0  0  0  0  0
   -9.2881  -13.6125    0.0000 N   0  0  0  0  0  0  0  0  0  0  0  0
  -10.7171  -12.7875    0.0000 Cl  0  0  0  0  0  0  0  0  0  0  0  0
  -10.1407  -14.1047    0.0000 H   0  0  0  0  0  0  0  0  0  0  0  0
  1  2  2  0  0  0  0
  1  6  1  0  0  0  0
  2  3  1  0  0  0  0
  3  4  2  0  0  0  0
  4  5  1  0  0  0  0
  4  8  1  0  0  0  0
  5  6  2  0  0  0  0
  5  7  1  0  0  0  0
  7  9  1  0  0  0  0
M  END
$$$$
CP(=O)C
 OpenBabel07182308452D

  4  3  0  0  0  0  0  0  0  0999 V2000
   -9.2881  -15.2625    0.0000 P   0  0  0  0  0  0  0  0  0  0  0  0
  -10.0026  -15.6750    0.0000 O   0  0  0  0  0  0  0  0  0  0  0  0
   -9.7006  -14.5480    0.0000 C   0  0  0  0  0  0  0  0  0  0  0  0
   -8.8756  -15.9770    0.0000 C   0  0  0  0  0  0  0  0  0  0  0  0
  1  2  2  0  0  0  0
  1  3  1  0  0  0  0
  1  4  1  0  0  0  0
M  END
$$$$
CN1CCOCc2c(C1)cccc2
 OpenBabel07182308452D

 13 14  0  0  0  0  0  0  0  0999 V2000
    4.6438   -0.1362    0.0000 C   0  0  0  0  0  0  0  0  0  0  0  0
    1.4908    1.2094    0.0000 C   0  0  0  0  0  0  0  0  0  0  0  0
    1.4908    2.0344    0.0000 C   0  0  0  0  0  0  0  0  0  0  0  0
    2.2053    0.7969    0.0000 C   0  0  0  0  0  0  0  0  0  0  0  0
    2.2053    2.4469    0.0000 C   0  0  0  0  0  0  0  0  0  0  0  0
    4.9114    1.2094    0.0000 C   0  0  0  0  0  0  0  0  0  0  0  0
    4.9114    2.0344    0.0000 C   0  0  0  0  0  0  0  0  0  0  0  0
    3.5031    0.6260    0.0000 C   0  0  0  0  0  0  0  0  0  0  0  0
    2.9197    1.2094    0.0000 C   0  0  0  0  0  0  0  0  0  0  0  0
    2.9197    2.0344    0.0000 C   0  0  0  0  0  0  0  0  0  0  0  0
    3.5031    2.6178    0.0000 C   0  0  0  0  0  0  0  0  0  0  0  0
    4.3281    0.6260    0.0000 N   0  0  0  0  0  0  0  0  0  0  0  0
    4.3281    2.6178    0.0000 O   0  0  0  0  0  0  0  0  0  0  0  0
  3  2  2  0  0  0  0
  4  2  1  0  0  0  0
  5  3  1  0  0  0  0
  7  6  1  0  0  0  0
  9  4  2  0  0  0  0
  9  8  1  0  0  0  0
 10  5  2  0  0  0  0
 10  9  1  0  0  0  0
 11 10  1  0  0  0  0
 12  1  1  0  0  0  0
 12  6  1  0  0  0  0
 12  8  1  0  0  0  0
 13  7  1  0  0  0  0
 13 11  1  0  0  0  0
M  END
$$$$
N#Cc1cc(O)cc(c1)Cl
 OpenBabel07182308452D

 10 10  0  0  0  0  0  0  0  0999 V2000
    3.5563   -1.1273    0.0000 Cl  0  0  0  0  0  0  0  0  0  0  0  0
    2.8450   -0.7148    0.0000 C   0  0  0  0  0  0  0  0  0  0  0  0
    2.1267   -1.1273    0.0000 C   0  0  0  0  0  0  0  0  0  0  0  0
    1.4154   -0.7077    0.0000 C   0  0  0  0  0  0  0  0  0  0  0  0
    0.7041   -1.1202    0.0000 O   0  0  0  0  0  0  0  0  0  0  0  0
    1.4154    0.1102    0.0000 C   0  0  0  0  0  0  0  0  0  0  0  0
    2.1338    0.5227    0.0000 C   0  0  0  0  0  0  0  0  0  0  0  0
    2.1338    1.3478    0.0000 C   0  0  0  0  0  0  0  0  0  0  0  0
    2.1338    2.1729    0.0000 N   0  0  0  0  0  0  0  0  0  0  0  0
    2.8450    0.1173    0.0000 C   0  0  0  0  0  0  0  0  0  0  0  0
  1  2  1  0  0  0  0
  2  3  2  0  0  0  0
  2 10  1  0  0  0  0
  3  4  1  0  0  0  0
  4  5  1  0  0  0  0
  4  6  2  0  0  0  0
  6  7  1  0  0  0  0
  7  8  1  0  0  0  0
  7 10  2  0  0  0  0
  8  9  3  0  0  0  0
M  END
$$$$
O=c1ccccn1C
 OpenBabel07182308452D

  8  8  0  0  0  0  0  0  0  0999 V2000
   -0.0071   -0.7077    0.0000 C   0  0  0  0  0  0  0  0  0  0  0  0
   -0.7254   -1.1202    0.0000 C   0  0  0  0  0  0  0  0  0  0  0  0
   -1.4367   -0.7077    0.0000 C   0  0  0  0  0  0  0  0  0  0  0  0
   -1.4367    0.1173    0.0000 C   0  0  0  0  0  0  0  0  0  0  0  0
   -0.7254    0.5370    0.0000 N   0  0  0  0  0  0  0  0  0  0  0  0
   -0.7254    1.3621    0.0000 C   0  0  0  0  0  0  0  0  0  0  0  0
   -0.0071    0.1173    0.0000 C   0  0  0  0  0  0  0  0  0  0  0  0
    0.7041    0.5299    0.0000 O   0  0  0  0  0  0  0  0  0  0  0  0
  1  2  2  0  0  0  0
  1  7  1  0  0  0  0
  2  3  1  0  0  0  0
  3  4  2  0  0  0  0
  4  5  1  0  0  0  0
  5  6  1  0  0  0  0
  5  7  1  0  0  0  0
  7  8  2  0  0  0  0
M  END
$$$$
Cn1cn[nH]c1=O
 OpenBabel07182308452D

  8  8  0  0  0  0  0  0  0  0999 V2000
   -1.4367    1.7746    0.0000 C   0  0  0  0  0  0  0  0  0  0  0  0
   -1.5220    2.5925    0.0000 N   0  0  0  0  0  0  0  0  0  0  0  0
   -2.3329    2.7632    0.0000 N   0  0  0  0  0  0  0  0  0  0  0  0
   -2.7383    2.0519    0.0000 C   0  0  0  0  0  0  0  0  0  0  0  0
   -2.1907    1.4331    0.0000 N   0  0  0  0  0  0  0  0  0  0  0  0
   -2.3614    0.6294    0.0000 C   0  0  0  0  0  0  0  0  0  0  0  0
   -3.5563    1.9595    0.0000 O   0  0  0  0  0  0  0  0  0  0  0  0
   -2.7367    3.6611    0.0000 H   0  0  0  0  0  0  0  0  0  0  0  0
  1  2  2  0  0  0  0
  1  5  1  0  0  0  0
  2  3  1  0  0  0  0
  3  4  1  0  0  0  0
  3  8  1  0  0  0  0
  4  5  1  0  0  0  0
  4  7  2  0  0  0  0
  5  6  1  0  0  0  0
M  END
$$$$
O=C1OC(=O)[C@@]2([C@@]1(C)[C@H]1CC[C@@H]2O1)C
 OpenBabel07182308452D

 16 18  0  0  0  0  0  0  0  0999 V2000
    1.6374   -1.0323    0.0000 C   0  0  0  0  0  0  0  0  0  0  0  0
    1.6374    1.4337    0.0000 C   0  0  0  0  0  0  0  0  0  0  0  0
    0.1223   -0.2118    0.0000 C   0  0  0  0  0  0  0  0  0  0  0  0
    0.1223    0.6132    0.0000 C   0  0  0  0  0  0  0  0  0  0  0  0
    0.8367   -0.6243    0.0000 C   0  0  1  0  0  0  0  0  0  0  0  0
    0.8367    1.0257    0.0000 C   0  0  2  0  0  0  0  0  0  0  0  0
    2.3358   -0.4667    0.0000 C   0  0  0  0  0  0  0  0  0  0  0  0
    2.3358    0.8682    0.0000 C   0  0  0  0  0  0  0  0  0  0  0  0
    1.5512   -0.2118    0.0000 C   0  0  1  0  0  0  0  0  0  0  0  0
    1.5512    0.6132    0.0000 C   0  0  2  0  0  0  0  0  0  0  0  0
    2.5908   -1.2513    0.0000 O   0  0  0  0  0  0  0  0  0  0  0  0
    2.5908    1.6528    0.0000 O   0  0  0  0  0  0  0  0  0  0  0  0
    1.0430    0.2007    0.0000 O   0  0  0  0  0  0  0  0  0  0  0  0
    2.8208    0.2007    0.0000 O   0  0  0  0  0  0  0  0  0  0  0  0
    0.4431   -1.3493    0.0000 H   0  0  0  0  0  0  0  0  0  0  0  0
    0.4431    1.7507    0.0000 H   0  0  0  0  0  0  0  0  0  0  0  0
  4  3  1  0  0  0  0
  5  3  1  0  0  0  0
  5  9  1  6  0  0  0
  5 15  1  0  0  0  0
  6  4  1  0  0  0  0
  6 10  1  6  0  0  0
  6 16  1  0  0  0  0
  9  1  1  0  0  0  0
  9  7  1  0  0  0  0
  9 10  1  6  0  0  0
 10  2  1  6  0  0  0
 10  8  1  0  0  0  0
 11  7  2  0  0  0  0
 12  8  2  0  0  0  0
 13  5  1  0  0  0  0
 13  6  1  0  0  0  0
 14  7  1  0  0  0  0
 14  8  1  0  0  0  0
M  END
$$$$
OC1=CC(=O)[C@@]2([C@H](C1)C[C@@H]1Cc3c(F)ccc(c3C(=O)C1=C2O)O)O
 OpenBabel07182308452D

 31 34  0  0  0  0  0  0  0  0999 V2000
   -1.4991    0.6166    0.0000 C   0  0  0  0  0  0  0  0  0  0  0  0
    2.7778    0.6138    0.0000 C   0  0  1  0  0  0  0  0  0  0  0  0
    2.7766   -0.2112    0.0000 C   0  0  2  0  0  0  0  0  0  0  0  0
    3.4882   -0.6208    0.0000 C   0  0  0  0  0  0  0  0  0  0  0  0
    4.2009   -0.2133    0.0000 C   0  0  0  0  0  0  0  0  0  0  0  0
    4.2021    0.6117    0.0000 C   0  0  0  0  0  0  0  0  0  0  0  0
    3.4906    1.0295    0.0000 C   0  0  0  0  0  0  0  0  0  0  0  0
    1.3526    0.6159    0.0000 C   0  0  0  0  0  0  0  0  0  0  0  0
    1.3514   -0.2091    0.0000 C   0  0  2  0  0  0  0  0  0  0  0  0
    2.0629   -0.6186    0.0000 C   0  0  0  0  0  0  0  0  0  0  0  0
    2.0653    1.0317    0.0000 C   0  0  0  0  0  0  0  0  0  0  0  0
   -0.0715    0.6180    0.0000 C   0  0  0  0  0  0  0  0  0  0  0  0
   -0.0727   -0.2070    0.0000 C   0  0  0  0  0  0  0  0  0  0  0  0
    0.6388   -0.6165    0.0000 C   0  0  0  0  0  0  0  0  0  0  0  0
    0.6412    1.0338    0.0000 C   0  0  0  0  0  0  0  0  0  0  0  0
   -1.5014   -0.2108    0.0000 C   0  0  0  0  0  0  0  0  0  0  0  0
   -0.7871   -0.6249    0.0000 C   0  0  0  0  0  0  0  0  0  0  0  0
   -0.7864    1.0284    0.0000 C   0  0  0  0  0  0  0  0  0  0  0  0
   -0.7964   -1.4473    0.0000 F   0  0  0  0  0  0  0  0  0  0  0  0
   -0.7915    1.8573    0.0000 O   0  0  0  0  0  0  0  0  0  0  0  0
    0.6379    1.8594    0.0000 O   0  0  0  0  0  0  0  0  0  0  0  0
    2.0589    1.8573    0.0000 O   0  0  0  0  0  0  0  0  0  0  0  0
    3.4841    1.8552    0.0000 O   0  0  0  0  0  0  0  0  0  0  0  0
    2.7708    1.4395    0.0000 O   0  0  0  0  0  0  0  0  0  0  0  0
    4.9098   -0.6266    0.0000 O   0  0  0  0  0  0  0  0  0  0  0  0
    2.7671   -1.0359    0.0000 H   0  0  0  0  0  0  0  0  0  0  0  0
    1.3419   -1.0338    0.0000 H   0  0  0  0  0  0  0  0  0  0  0  0
    0.0171    2.3308    0.0000 H   0  0  0  0  0  0  0  0  0  0  0  0
    2.8667    2.3321    0.0000 H   0  0  0  0  0  0  0  0  0  0  0  0
    3.6067    1.9316    0.0000 H   0  0  0  0  0  0  0  0  0  0  0  0
    4.9058   -1.5636    0.0000 H   0  0  0  0  0  0  0  0  0  0  0  0
  1 16  2  0  0  0  0
  2  7  1  0  0  0  0
  2 24  1  0  0  0  0
  2 11  1  0  0  0  0
  2  3  1  1  0  0  0
  3  4  1  0  0  0  0
  3 26  1  1  0  0  0
  4  5  1  0  0  0  0
  5  6  2  0  0  0  0
  5 25  1  0  0  0  0
  6  7  1  0  0  0  0
  7 23  2  0  0  0  0
  8 15  1  0  0  0  0
  8  9  1  0  0  0  0
  8 11  2  0  0  0  0
  9 10  1  0  0  0  0
  9 27  1  1  0  0  0
 10  3  1  0  0  0  0
 11 22  1  0  0  0  0
 12 15  1  0  0  0  0
 12 18  2  0  0  0  0
 12 13  1  0  0  0  0
 13 14  1  0  0  0  0
 14  9  1  0  0  0  0
 15 21  2  0  0  0  0
 16 17  1  0  0  0  0
 17 13  2  0  0  0  0
 17 19  1  0  0  0  0
 18  1  1  0  0  0  0
 18 20  1  0  0  0  0
 20 28  1  0  0  0  0
 22 29  1  0  0  0  0
 24 30  1  0  0  0  0
 25 31  1  0  0  0  0
M  END
$$$$
Fc1cc2C(=O)NCCc3c2c(c1)[nH]c3
 OpenBabel07182308452D

 17 19  0  0  0  0  0  0  0  0999 V2000
    1.2055    3.3107    0.0000 C   0  0  0  0  0  0  0  0  0  0  0  0
    1.5163    2.5465    0.0000 C   0  0  0  0  0  0  0  0  0  0  0  0
    0.8855    2.0147    0.0000 C   0  0  0  0  0  0  0  0  0  0  0  0
    0.9080    1.1900    0.0000 C   0  0  0  0  0  0  0  0  0  0  0  0
    0.1311    0.8012    0.0000 C   0  0  0  0  0  0  0  0  0  0  0  0
   -0.5696    1.2367    0.0000 C   0  0  0  0  0  0  0  0  0  0  0  0
   -0.5427    2.0613    0.0000 C   0  0  0  0  0  0  0  0  0  0  0  0
    0.1849    2.4503    0.0000 C   0  0  0  0  0  0  0  0  0  0  0  0
    0.3826    3.2512    0.0000 N   0  0  0  0  0  0  0  0  0  0  0  0
   -1.2971    0.8477    0.0000 F   0  0  0  0  0  0  0  0  0  0  0  0
    1.5668    0.6934    0.0000 C   0  0  0  0  0  0  0  0  0  0  0  0
    1.4052   -0.1156    0.0000 O   0  0  0  0  0  0  0  0  0  0  0  0
    2.3658    0.8988    0.0000 N   0  0  0  0  0  0  0  0  0  0  0  0
    2.7034    1.6516    0.0000 C   0  0  0  0  0  0  0  0  0  0  0  0
    2.3253    2.3849    0.0000 C   0  0  0  0  0  0  0  0  0  0  0  0
   -0.2520    4.0039    0.0000 H   0  0  0  0  0  0  0  0  0  0  0  0
    3.0004    0.1461    0.0000 H   0  0  0  0  0  0  0  0  0  0  0  0
  1  2  2  0  0  0  0
  1  9  1  0  0  0  0
  2  3  1  0  0  0  0
  2 15  1  0  0  0  0
  3  4  2  0  0  0  0
  3  8  1  0  0  0  0
  4  5  1  0  0  0  0
  4 11  1  0  0  0  0
  5  6  2  0  0  0  0
  6  7  1  0  0  0  0
  6 10  1  0  0  0  0
  7  8  2  0  0  0  0
  8  9  1  0  0  0  0
  9 16  1  0  0  0  0
 11 12  2  0  0  0  0
 11 13  1  0  0  0  0
 13 14  1  0  0  0  0
 13 17  1  0  0  0  0
 14 15  1  0  0  0  0
M  END
$$$$
Brc1ccc2c(c1)C=N[C@H](c1n2c(C)cn1)C
 OpenBabel07182308452D

 17 19  0  0  1  0  0  0  0  0999 V2000
    1.6288    0.2334    0.0000 C   0  0  0  0  0  0  0  0  0  0  0  0
    1.9486    0.9939    0.0000 C   0  0  0  0  0  0  0  0  0  0  0  0
    2.7519    1.1821    0.0000 C   0  0  0  0  0  0  0  0  0  0  0  0
    2.8210    2.0042    0.0000 N   0  0  0  0  0  0  0  0  0  0  0  0
    2.0605    2.3241    0.0000 C   0  0  0  0  0  0  0  0  0  0  0  0
    1.5214    1.6996    0.0000 N   0  0  0  0  0  0  0  0  0  0  0  0
    0.6970    1.7318    0.0000 C   0  0  0  0  0  0  0  0  0  0  0  0
    0.3659    0.9762    0.0000 C   0  0  0  0  0  0  0  0  0  0  0  0
   -0.4541    0.8852    0.0000 C   0  0  0  0  0  0  0  0  0  0  0  0
   -0.9429    1.5498    0.0000 C   0  0  0  0  0  0  0  0  0  0  0  0
   -0.6118    2.3054    0.0000 C   0  0  0  0  0  0  0  0  0  0  0  0
    0.2082    2.3964    0.0000 C   0  0  0  0  0  0  0  0  0  0  0  0
    0.4230    3.1929    0.0000 C   0  0  0  0  0  0  0  0  0  0  0  0
    1.1797    3.5216    0.0000 N   0  0  0  0  0  0  0  0  0  0  0  0
    1.9085    3.1349    0.0000 C   0  0  1  0  0  0  0  0  0  0  0  0
    2.5731    3.6237    0.0000 C   0  0  0  0  0  0  0  0  0  0  0  0
   -1.7629    1.4587    0.0000 Br  0  0  0  0  0  0  0  0  0  0  0  0
  1  2  1  0  0  0  0
  2  3  2  0  0  0  0
  2  6  1  0  0  0  0
  3  4  1  0  0  0  0
  4  5  2  0  0  0  0
  5  6  1  0  0  0  0
  5 15  1  0  0  0  0
  6  7  1  0  0  0  0
  7  8  2  0  0  0  0
  7 12  1  0  0  0  0
  8  9  1  0  0  0  0
  9 10  2  0  0  0  0
 10 11  1  0  0  0  0
 10 17  1  0  0  0  0
 11 12  2  0  0  0  0
 12 13  1  0  0  0  0
 13 14  2  0  0  0  0
 14 15  1  0  0  0  0
 15 16  1  1  0  0  0
M  END
$$$$
C[C@H]1CCC[C@@]2([C@@H]1CC[C@@]13[C@H]2CC[C@](C3)(C(=C)C1)O)C
 OpenBabel07182308452D

 20 23  0  0  1  0  0  0  0  0999 V2000
    3.4675   -1.1600    0.0000 C   0  0  0  0  0  0  0  0  0  0  0  0
    3.7079   -0.3708    0.0000 C   0  0  1  0  0  0  0  0  0  0  0  0
    4.2660   -0.9783    0.0000 C   0  0  0  0  0  0  0  0  0  0  0  0
    5.0712   -0.7987    0.0000 C   0  0  0  0  0  0  0  0  0  0  0  0
    5.3183   -0.0116    0.0000 C   0  0  0  0  0  0  0  0  0  0  0  0
    4.7601    0.5959    0.0000 C   0  0  1  0  0  0  0  0  0  0  0  0
    3.9549    0.4163    0.0000 C   0  0  1  0  0  0  0  0  0  0  0  0
    3.4013    1.0406    0.0000 C   0  0  0  0  0  0  0  0  0  0  0  0
    2.5923    0.8721    0.0000 C   0  0  0  0  0  0  0  0  0  0  0  0
    2.2888    0.0848    0.0000 C   0  0  2  0  0  0  0  0  0  0  0  0
    2.8891   -0.5680    0.0000 C   0  0  1  0  0  0  0  0  0  0  0  0
    2.6457   -1.4133    0.0000 C   0  0  0  0  0  0  0  0  0  0  0  0
    1.8005   -1.5738    0.0000 C   0  0  0  0  0  0  0  0  0  0  0  0
    1.2392   -0.9158    0.0000 C   0  0  2  0  0  0  0  0  0  0  0  0
    1.8145   -0.4488    0.0000 C   0  0  0  0  0  0  0  0  0  0  0  0
    0.8565   -0.1421    0.0000 C   0  0  0  0  0  0  0  0  0  0  0  0
    0.0431   -0.0038    0.0000 C   0  0  0  0  0  0  0  0  0  0  0  0
    1.4780    0.4659    0.0000 C   0  0  0  0  0  0  0  0  0  0  0  0
    0.5504   -1.3699    0.0000 O   0  0  0  0  0  0  0  0  0  0  0  0
    5.3478    1.1749    0.0000 C   0  0  0  0  0  0  0  0  0  0  0  0
  2  1  1  6  0  0  0
  2  3  1  0  0  0  0
  3  4  1  0  0  0  0
  4  5  1  0  0  0  0
  5  6  1  0  0  0  0
  6  7  1  0  0  0  0
  6 20  1  1  0  0  0
  7  2  1  6  0  0  0
  7  8  1  0  0  0  0
  8  9  1  0  0  0  0
 10  9  1  6  0  0  0
 10 15  1  0  0  0  0
 10 18  1  0  0  0  0
 11  2  1  6  0  0  0
 11 10  1  0  0  0  0
 11 12  1  0  0  0  0
 12 13  1  0  0  0  0
 13 14  1  0  0  0  0
 14 15  1  0  0  0  0
 14 16  1  0  0  0  0
 14 19  1  6  0  0  0
 16 17  2  0  0  0  0
 16 18  1  0  0  0  0
M  END
$$$$
OC1=CC(=O)[C@@]2([C@H](C1)C[C@@H]1Cc3ccc(c(c3C(=O)C1=C2O)O)C)O
 OpenBabel07182308452D

 31 34  0  0  0  0  0  0  0  0999 V2000
   -1.0716    1.0614    0.0000 C   0  0  0  0  0  0  0  0  0  0  0  0
   -1.7861    0.6489    0.0000 C   0  0  0  0  0  0  0  0  0  0  0  0
   -1.7861   -0.1760    0.0000 C   0  0  0  0  0  0  0  0  0  0  0  0
   -1.0716   -0.5885    0.0000 C   0  0  0  0  0  0  0  0  0  0  0  0
   -0.3572   -0.1760    0.0000 C   0  0  0  0  0  0  0  0  0  0  0  0
   -0.3572    0.6489    0.0000 C   0  0  0  0  0  0  0  0  0  0  0  0
   -2.5006    1.0614    0.0000 C   0  0  0  0  0  0  0  0  0  0  0  0
    0.3572    1.0614    0.0000 C   0  0  0  0  0  0  0  0  0  0  0  0
    0.3572   -0.5885    0.0000 C   0  0  0  0  0  0  0  0  0  0  0  0
    1.0716   -0.1760    0.0000 C   0  0  2  0  0  0  0  0  0  0  0  0
    1.0716    0.6489    0.0000 C   0  0  0  0  0  0  0  0  0  0  0  0
    1.7861    1.0614    0.0000 C   0  0  0  0  0  0  0  0  0  0  0  0
    1.7861   -0.5885    0.0000 C   0  0  0  0  0  0  0  0  0  0  0  0
    2.5007   -0.1760    0.0000 C   0  0  2  0  0  0  0  0  0  0  0  0
    2.5007    0.6489    0.0000 C   0  0  1  0  0  0  0  0  0  0  0  0
    3.2151    1.0614    0.0000 C   0  0  0  0  0  0  0  0  0  0  0  0
    3.2151   -0.5885    0.0000 C   0  0  0  0  0  0  0  0  0  0  0  0
    3.9296   -0.1760    0.0000 C   0  0  0  0  0  0  0  0  0  0  0  0
    3.9296    0.6489    0.0000 C   0  0  0  0  0  0  0  0  0  0  0  0
    4.6441   -0.5885    0.0000 O   0  0  0  0  0  0  0  0  0  0  0  0
    3.2151    1.8864    0.0000 O   0  0  0  0  0  0  0  0  0  0  0  0
    2.5007    1.4739    0.0000 O   0  0  0  0  0  0  0  0  0  0  0  0
    1.7861    1.8864    0.0000 O   0  0  0  0  0  0  0  0  0  0  0  0
    0.3572    1.8864    0.0000 O   0  0  0  0  0  0  0  0  0  0  0  0
   -1.0716    1.8864    0.0000 O   0  0  0  0  0  0  0  0  0  0  0  0
    2.5007   -1.1760    0.0000 H   0  0  0  0  0  0  0  0  0  0  0  0
    1.0716   -1.1760    0.0000 H   0  0  0  0  0  0  0  0  0  0  0  0
    4.6441   -1.5255    0.0000 H   0  0  0  0  0  0  0  0  0  0  0  0
    3.3407    1.9589    0.0000 H   0  0  0  0  0  0  0  0  0  0  0  0
    2.5976    2.3549    0.0000 H   0  0  0  0  0  0  0  0  0  0  0  0
   -0.2601    2.3549    0.0000 H   0  0  0  0  0  0  0  0  0  0  0  0
  1  2  1  0  0  0  0
  1  6  2  0  0  0  0
  1 25  1  0  0  0  0
  2  3  2  0  0  0  0
  2  7  1  0  0  0  0
  3  4  1  0  0  0  0
  4  5  2  0  0  0  0
  5  9  1  0  0  0  0
  6  5  1  0  0  0  0
  8  6  1  0  0  0  0
  8 11  1  0  0  0  0
  8 24  2  0  0  0  0
  9 10  1  0  0  0  0
 10 13  1  0  0  0  0
 10 27  1  1  0  0  0
 11 10  1  0  0  0  0
 12 11  2  0  0  0  0
 12 15  1  0  0  0  0
 12 23  1  0  0  0  0
 13 14  1  0  0  0  0
 14 15  1  1  0  0  0
 14 17  1  0  0  0  0
 14 26  1  0  0  0  0
 15 22  1  1  0  0  0
 16 15  1  0  0  0  0
 16 19  1  0  0  0  0
 16 21  2  0  0  0  0
 17 18  1  0  0  0  0
 18 19  2  0  0  0  0
 18 20  1  0  0  0  0
 20 28  1  0  0  0  0
 22 29  1  0  0  0  0
 23 30  1  0  0  0  0
 25 31  1  0  0  0  0
M  END
$$$$
N[C@H]1CCC[C@H](c2c1cccn2)O
 OpenBabel07182308452D

 15 16  0  0  1  0  0  0  0  0999 V2000
   -3.6821   12.8967    0.0000 C   0  0  0  0  0  0  0  0  0  0  0  0
   -2.9936   12.4422    0.0000 C   0  0  0  0  0  0  0  0  0  0  0  0
   -2.9196   11.6205    0.0000 C   0  0  0  0  0  0  0  0  0  0  0  0
   -3.5159   11.0504    0.0000 C   0  0  2  0  0  0  0  0  0  0  0  0
   -4.3335   11.1611    0.0000 C   0  0  0  0  0  0  0  0  0  0  0  0
   -4.7566   11.8694    0.0000 C   0  0  0  0  0  0  0  0  0  0  0  0
   -5.5815   11.8570    0.0000 C   0  0  0  0  0  0  0  0  0  0  0  0
   -5.9833   11.1365    0.0000 C   0  0  0  0  0  0  0  0  0  0  0  0
   -5.5601   10.4282    0.0000 C   0  0  0  0  0  0  0  0  0  0  0  0
   -4.7352   10.4406    0.0000 N   0  0  0  0  0  0  0  0  0  0  0  0
   -4.4667   12.6418    0.0000 C   0  0  1  0  0  0  0  0  0  0  0  0
   -5.0368   13.2381    0.0000 N   0  0  0  0  0  0  0  0  0  0  0  0
   -3.2610   10.2658    0.0000 O   0  0  0  0  0  0  0  0  0  0  0  0
   -4.7507   14.2172    0.0000 H   0  0  0  0  0  0  0  0  0  0  0  0
   -6.0277   12.9963    0.0000 H   0  0  0  0  0  0  0  0  0  0  0  0
  1  2  1  0  0  0  0
  1 11  1  0  0  0  0
  2  3  1  0  0  0  0
  3  4  1  0  0  0  0
  4  5  1  0  0  0  0
  4 13  1  1  0  0  0
  5  6  2  0  0  0  0
  5 10  1  0  0  0  0
  6  7  1  0  0  0  0
  6 11  1  0  0  0  0
  7  8  2  0  0  0  0
  8  9  1  0  0  0  0
  9 10  2  0  0  0  0
 11 12  1  1  0  0  0
 12 14  1  0  0  0  0
 12 15  1  0  0  0  0
M  END
$$$$
O=c1[nH]c2c([nH]1)cccn2
 OpenBabel07182308452D

 11 12  0  0  1  0  0  0  0  0999 V2000
   -1.4343    6.9558    0.0000 N   0  0  0  0  0  0  0  0  0  0  0  0
   -0.6496    6.7008    0.0000 C   0  0  0  0  0  0  0  0  0  0  0  0
    0.0648    7.1133    0.0000 C   0  0  0  0  0  0  0  0  0  0  0  0
    0.7793    6.7008    0.0000 C   0  0  0  0  0  0  0  0  0  0  0  0
    0.7793    5.8758    0.0000 C   0  0  0  0  0  0  0  0  0  0  0  0
    0.0648    5.4633    0.0000 N   0  0  0  0  0  0  0  0  0  0  0  0
   -0.6496    5.8758    0.0000 C   0  0  0  0  0  0  0  0  0  0  0  0
   -1.4343    5.6209    0.0000 N   0  0  0  0  0  0  0  0  0  0  0  0
   -1.9192    6.2883    0.0000 C   0  0  0  0  0  0  0  0  0  0  0  0
   -2.7442    6.2883    0.0000 O   0  0  0  0  0  0  0  0  0  0  0  0
   -1.7386    4.6846    0.0000 H   0  0  0  0  0  0  0  0  0  0  0  0
  1  2  1  0  0  0  0
  1  9  1  0  0  0  0
  2  3  2  0  0  0  0
  2  7  1  0  0  0  0
  3  4  1  0  0  0  0
  4  5  2  0  0  0  0
  5  6  1  0  0  0  0
  6  7  2  0  0  0  0
  7  8  1  0  0  0  0
  8  9  1  0  0  0  0
  8 11  1  0  0  0  0
  9 10  2  0  0  0  0
M  END
$$$$
Oc1ncc(nc1)F
 OpenBabel07182308452D

  9  9  0  0  0  0  0  0  0  0999 V2000
   -0.3572   -1.2374    0.0000 N   0  0  0  0  0  0  0  0  0  0  0  0
   -1.0716   -0.8250    0.0000 C   0  0  0  0  0  0  0  0  0  0  0  0
   -1.0716    0.0000    0.0000 C   0  0  0  0  0  0  0  0  0  0  0  0
   -0.3572    0.4125    0.0000 N   0  0  0  0  0  0  0  0  0  0  0  0
    0.3572    0.0000    0.0000 C   0  0  0  0  0  0  0  0  0  0  0  0
    0.3572   -0.8250    0.0000 C   0  0  0  0  0  0  0  0  0  0  0  0
    1.0717   -1.2374    0.0000 O   0  0  0  0  0  0  0  0  0  0  0  0
   -1.7861    0.4125    0.0000 F   0  0  0  0  0  0  0  0  0  0  0  0
    1.0718   -2.1744    0.0000 H   0  0  0  0  0  0  0  0  0  0  0  0
  1  2  1  0  0  0  0
  1  6  2  0  0  0  0
  2  3  2  0  0  0  0
  3  4  1  0  0  0  0
  3  8  1  0  0  0  0
  4  5  2  0  0  0  0
  5  6  1  0  0  0  0
  6  7  1  0  0  0  0
  7  9  1  0  0  0  0
M  END
$$$$
C[C@@H]1CC[C@]2([C@@](C1)(C)CC=C1[C@@H]2CC[C@@H]2[C@]31COC[C@@]2(C)[C@H](CC3)O)C
 OpenBabel07182308452D

 28 32  0  0  1  0  0  0  0  0999 V2000
   -2.1432   -0.1647    0.0000 C   0  0  0  0  0  0  0  0  0  0  0  0
   -1.4272    0.2523    0.0000 C   0  0  0  0  0  0  0  0  0  0  0  0
   -0.7114   -0.1647    0.0000 C   0  0  2  0  0  0  0  0  0  0  0  0
   -0.7114   -0.9851    0.0000 C   0  0  2  0  0  0  0  0  0  0  0  0
   -1.4272   -1.4022    0.0000 C   0  0  2  0  0  0  0  0  0  0  0  0
   -2.1432   -0.9851    0.0000 C   0  0  1  0  0  0  0  0  0  0  0  0
   -2.8546   -1.4022    0.0000 O   0  0  0  0  0  0  0  0  0  0  0  0
   -1.8194   -0.8180    0.0000 C   0  0  0  0  0  0  0  0  0  0  0  0
   -1.8194   -0.3362    0.0000 O   0  0  0  0  0  0  0  0  0  0  0  0
   -1.4055   -0.0554    0.0000 C   0  0  0  0  0  0  0  0  0  0  0  0
   -1.4272   -2.2304    0.0000 C   0  0  0  0  0  0  0  0  0  0  0  0
    0.0000   -1.4022    0.0000 C   0  0  0  0  0  0  0  0  0  0  0  0
    0.7157   -0.9852    0.0000 C   0  0  0  0  0  0  0  0  0  0  0  0
    0.7157   -0.1648    0.0000 C   0  0  1  0  0  0  0  0  0  0  0  0
    0.0000    0.2522    0.0000 C   0  0  0  0  0  0  0  0  0  0  0  0
    0.0000    1.0727    0.0000 C   0  0  0  0  0  0  0  0  0  0  0  0
    0.7159    1.4851    0.0000 C   0  0  0  0  0  0  0  0  0  0  0  0
    1.4272    1.0726    0.0000 C   0  0  2  0  0  0  0  0  0  0  0  0
    1.4272    0.2522    0.0000 C   0  0  2  0  0  0  0  0  0  0  0  0
    2.1431   -0.1648    0.0000 C   0  0  0  0  0  0  0  0  0  0  0  0
    2.8547    0.2521    0.0000 C   0  0  0  0  0  0  0  0  0  0  0  0
    2.8547    1.0725    0.0000 C   0  0  2  0  0  0  0  0  0  0  0  0
    2.1432    1.4850    0.0000 C   0  0  0  0  0  0  0  0  0  0  0  0
    2.8547    1.9020    0.0000 C   0  0  0  0  0  0  0  0  0  0  0  0
    1.4272   -0.5726    0.0000 C   0  0  0  0  0  0  0  0  0  0  0  0
    1.4272    1.9021    0.0000 C   0  0  0  0  0  0  0  0  0  0  0  0
    0.7157    0.6647    0.0000 H   0  0  0  0  0  0  0  0  0  0  0  0
   -0.7114   -1.7091    0.0000 H   0  0  0  0  0  0  0  0  0  0  0  0
  1  2  1  0  0  0  0
  1  6  1  0  0  0  0
  3  2  1  0  0  0  0
  3  4  1  6  0  0  0
  3 10  1  0  0  0  0
  3 15  1  0  0  0  0
  4  5  1  1  0  0  0
  4 12  1  0  0  0  0
  4 28  1  0  0  0  0
  5  8  1  0  0  0  0
  5 11  1  1  0  0  0
  6  5  1  1  0  0  0
  6  7  1  0  0  0  0
  8  9  1  0  0  0  0
  9 10  1  0  0  0  0
 12 13  1  0  0  0  0
 13 14  1  0  0  0  0
 14 15  1  0  0  0  0
 14 19  1  1  0  0  0
 14 27  1  0  0  0  0
 15 16  2  0  0  0  0
 17 16  1  0  0  0  0
 18 17  1  0  0  0  0
 18 19  1  6  0  0  0
 18 23  1  0  0  0  0
 18 26  1  0  0  0  0
 19 20  1  0  0  0  0
 19 25  1  1  0  0  0
 20 21  1  0  0  0  0
 21 22  1  0  0  0  0
 22 23  1  0  0  0  0
 22 24  1  6  0  0  0
M  END
$$$$
CN1CCS(=O)(=O)NC1
 OpenBabel07182308452D

 10 10  0  0  0  0  0  0  0  0999 V2000
   -0.7145   -1.2375    0.0000 C   0  0  0  0  0  0  0  0  0  0  0  0
   -1.4289   -1.6500    0.0000 C   0  0  0  0  0  0  0  0  0  0  0  0
   -0.0000   -2.4750    0.0000 C   0  0  0  0  0  0  0  0  0  0  0  0
    0.7145   -1.2375    0.0000 C   0  0  0  0  0  0  0  0  0  0  0  0
   -0.7145   -2.8875    0.0000 N   0  0  0  0  0  0  0  0  0  0  0  0
   -0.0000   -1.6500    0.0000 N   0  0  0  0  0  0  0  0  0  0  0  0
   -2.2534   -2.5038    0.0000 O   0  0  0  0  0  0  0  0  0  0  0  0
   -1.8661   -3.1746    0.0000 O   0  0  0  0  0  0  0  0  0  0  0  0
   -1.4289   -2.4750    0.0000 S   0  0  0  0  0  0  0  0  0  0  0  0
   -0.7145   -3.9075    0.0000 H   0  0  0  0  0  0  0  0  0  0  0  0
  2  1  1  0  0  0  0
  5  3  1  0  0  0  0
  5 10  1  0  0  0  0
  6  1  1  0  0  0  0
  6  3  1  0  0  0  0
  6  4  1  0  0  0  0
  9  2  1  0  0  0  0
  9  5  1  0  0  0  0
  9  7  2  0  0  0  0
  9  8  2  0  0  0  0
M  END
$$$$
O=S1(=O)CCNCN1
 OpenBabel07182308452D

  9  9  0  0  0  0  0  0  0  0999 V2000
    1.4289   -0.0000    0.0000 C   0  0  0  0  0  0  0  0  0  0  0  0
    1.4289    0.8250    0.0000 C   0  0  0  0  0  0  0  0  0  0  0  0
    0.0000   -0.0000    0.0000 C   0  0  0  0  0  0  0  0  0  0  0  0
    0.0000    0.8250    0.0000 N   0  0  0  0  0  0  0  0  0  0  0  0
    0.7145   -0.4125    0.0000 N   0  0  0  0  0  0  0  0  0  0  0  0
    1.1018    1.9659    0.0000 O   0  0  0  0  0  0  0  0  0  0  0  0
    0.3272    1.9659    0.0000 O   0  0  0  0  0  0  0  0  0  0  0  0
    0.7145    1.2375    0.0000 S   0  0  0  0  0  0  0  0  0  0  0  0
   -0.8833    1.3350    0.0000 H   0  0  0  0  0  0  0  0  0  0  0  0
  2  1  1  0  0  0  0
  4  3  1  0  0  0  0
  4  9  1  0  0  0  0
  5  1  1  0  0  0  0
  5  3  1  0  0  0  0
  8  2  1  0  0  0  0
  8  4  1  0  0  0  0
  8  6  2  0  0  0  0
  8  7  2  0  0  0  0
M  END
$$$$
C#C[C@]1(O)CC[C@@H]2[C@]1(C)CC[C@H]1[C@H]2CCC2=CCCC[C@H]12
 OpenBabel07182308452D

 22 25  0  0  1  0  0  0  0  0999 V2000
    4.3228    1.7357    0.0000 C   0  0  0  0  0  0  0  0  0  0  0  0
    3.9629    0.9934    0.0000 C   0  0  2  0  0  0  0  0  0  0  0  0
    3.4311    1.6241    0.0000 C   0  0  0  0  0  0  0  0  0  0  0  0
    2.6190    1.4789    0.0000 C   0  0  0  0  0  0  0  0  0  0  0  0
    2.3387    0.7029    0.0000 C   0  0  1  0  0  0  0  0  0  0  0  0
    2.8705    0.0722    0.0000 C   0  0  2  0  0  0  0  0  0  0  0  0
    3.6826    0.2174    0.0000 C   0  0  2  0  0  0  0  0  0  0  0  0
    4.3340   -0.2889    0.0000 C   0  0  0  0  0  0  0  0  0  0  0  0
    5.0168    0.1741    0.0000 C   0  0  0  0  0  0  0  0  0  0  0  0
    4.7875    0.9666    0.0000 C   0  0  1  0  0  0  0  0  0  0  0  0
    5.5484    1.2854    0.0000 C   0  0  0  0  0  0  0  0  0  0  0  0
    6.3093    1.6043    0.0000 C   0  0  0  0  0  0  0  0  0  0  0  0
    4.9089    1.7826    0.0000 O   0  0  0  0  0  0  0  0  0  0  0  0
    2.5902   -0.7037    0.0000 C   0  0  0  0  0  0  0  0  0  0  0  0
    1.7781   -0.8489    0.0000 C   0  0  0  0  0  0  0  0  0  0  0  0
    1.2463   -0.2182    0.0000 C   0  0  0  0  0  0  0  0  0  0  0  0
    0.4342   -0.3634    0.0000 C   0  0  0  0  0  0  0  0  0  0  0  0
   -0.0976    0.2673    0.0000 C   0  0  0  0  0  0  0  0  0  0  0  0
    0.1827    1.0432    0.0000 C   0  0  0  0  0  0  0  0  0  0  0  0
    0.9948    1.1884    0.0000 C   0  0  0  0  0  0  0  0  0  0  0  0
    1.5266    0.5577    0.0000 C   0  0  2  0  0  0  0  0  0  0  0  0
    5.8112    2.1387    0.0000 H   0  0  0  0  0  0  0  0  0  0  0  0
  2  1  1  0  0  0  0
  2  3  1  0  0  0  0
  2 10  1  6  0  0  0
  3  4  1  0  0  0  0
  5  4  1  1  0  0  0
  5  6  1  0  0  0  0
  5 21  1  0  0  0  0
  6  7  1  0  0  0  0
  6 14  1  6  0  0  0
  7  2  1  1  0  0  0
  7  8  1  0  0  0  0
  8  9  1  0  0  0  0
  9 10  1  0  0  0  0
 10 11  1  6  0  0  0
 10 13  1  0  0  0  0
 11 12  3  0  0  0  0
 13 22  1  0  0  0  0
 14 15  1  0  0  0  0
 15 16  1  0  0  0  0
 16 17  2  0  0  0  0
 16 21  1  0  0  0  0
 17 18  1  0  0  0  0
 18 19  1  0  0  0  0
 19 20  1  0  0  0  0
 21 20  1  6  0  0  0
M  END
$$$$
O[C@H]1CC[C@]2([C@H](C1(C)C)CC[C@@]1([C@@H]2CC[C@H]2[C@@]1(C)CCC1[C@@H]2CCC1)C)C
 OpenBabel07182308452D

 34 38  0  0  1  0  0  0  0  0999 V2000
    3.4724    2.9438    0.0000 O   0  0  0  0  0  0  0  0  0  0  0  0
    7.0795    4.1807    0.0000 C   0  0  1  0  0  0  0  0  0  0  0  0
    7.7695    4.5791    0.0000 C   0  0  1  0  0  0  0  0  0  0  0  0
    6.3895    4.5791    0.0000 C   0  0  1  0  0  0  0  0  0  0  0  0
    7.7695    5.3759    0.0000 C   0  0  1  0  0  0  0  0  0  0  0  0
    5.6644    4.1752    0.0000 C   0  0  2  0  0  0  0  0  0  0  0  0
    8.4818    5.8018    0.0000 C   0  0  2  0  0  0  0  0  0  0  0  0
    5.6579    3.3453    0.0000 C   0  0  1  0  0  0  0  0  0  0  0  0
    9.2037    5.3924    0.0000 C   0  0  3  0  0  0  0  0  0  0  0  0
    7.0923    3.3508    0.0000 C   0  0  0  0  0  0  0  0  0  0  0  0
    6.3895    5.3759    0.0000 C   0  0  0  0  0  0  0  0  0  0  0  0
    8.4818    4.1530    0.0000 C   0  0  0  0  0  0  0  0  0  0  0  0
    7.0795    5.7743    0.0000 C   0  0  0  0  0  0  0  0  0  0  0  0
    6.3767    2.9303    0.0000 C   0  0  0  0  0  0  0  0  0  0  0  0
    9.2037    4.5624    0.0000 C   0  0  0  0  0  0  0  0  0  0  0  0
    4.9126    2.9073    0.0000 C   0  0  0  0  0  0  0  0  0  0  0  0
    8.6492    6.6097    0.0000 C   0  0  0  0  0  0  0  0  0  0  0  0
    4.9259    4.6247    0.0000 C   0  0  0  0  0  0  0  0  0  0  0  0
    7.5917    3.5703    0.0000 C   0  0  0  0  0  0  0  0  0  0  0  0
    8.0421    3.8303    0.0000 C   0  0  0  0  0  0  0  0  0  0  0  0
    9.8111    5.9507    0.0000 C   0  0  0  0  0  0  0  0  0  0  0  0
    9.4691    6.7016    0.0000 C   0  0  0  0  0  0  0  0  0  0  0  0
    5.6705    4.9720    0.0000 C   0  0  0  0  0  0  0  0  0  0  0  0
    4.1640    3.3395    0.0000 C   0  0  2  0  0  0  0  0  0  0  0  0
    4.1706    4.2040    0.0000 C   0  0  0  0  0  0  0  0  0  0  0  0
    4.5170    2.2157    0.0000 C   0  0  0  0  0  0  0  0  0  0  0  0
    5.3137    2.2188    0.0000 C   0  0  0  0  0  0  0  0  0  0  0  0
    6.9760    4.9177    0.0000 H   0  0  0  0  0  0  0  0  0  0  0  0
    7.7643    6.0531    0.0000 H   0  0  0  0  0  0  0  0  0  0  0  0
    7.9298    6.1943    0.0000 H   0  0  0  0  0  0  0  0  0  0  0  0
    5.6606    2.6680    0.0000 H   0  0  0  0  0  0  0  0  0  0  0  0
    8.8232    7.0721    0.0000 H   0  0  0  0  0  0  0  0  0  0  0  0
    4.1630    2.8455    0.0000 H   0  0  0  0  0  0  0  0  0  0  0  0
    3.0455    3.1924    0.0000 H   0  0  0  0  0  0  0  0  0  0  0  0
  1 34  1  0  0  0  0
  2  3  1  6  0  0  0
  2 10  1  0  0  0  0
  2 19  1  0  0  0  0
  3  5  1  6  0  0  0
  3 12  1  0  0  0  0
  3 20  1  0  0  0  0
  4  2  1  1  0  0  0
  4 11  1  0  0  0  0
  4 28  1  0  0  0  0
  5  7  1  6  0  0  0
  5 13  1  0  0  0  0
  5 29  1  0  0  0  0
  6  4  1  6  0  0  0
  6 18  1  0  0  0  0
  6 23  1  0  0  0  0
  7  9  1  0  0  0  0
  7 17  1  0  0  0  0
  7 30  1  6  0  0  0
  8  6  1  6  0  0  0
  8 14  1  0  0  0  0
  8 16  1  0  0  0  0
  8 31  1  0  0  0  0
  9 15  1  0  0  0  0
  9 21  1  0  0  0  0
 10 14  1  0  0  0  0
 11 13  1  0  0  0  0
 12 15  1  0  0  0  0
 16 24  1  0  0  0  0
 16 26  1  0  0  0  0
 16 27  1  0  0  0  0
 17 22  1  0  0  0  0
 17 32  1  0  0  0  0
 18 25  1  0  0  0  0
 21 22  1  0  0  0  0
 24  1  1  0  0  0  0
 24 25  1  0  0  0  0
 24 33  1  6  0  0  0
M  END
$$$$
Oc1ccc2c(c1)ncn1c2=NCC1
 OpenBabel07182308452D

 14 16  0  0  0  0  0  0  0  0999 V2000
    1.7799   -0.1550    0.0000 C   0  0  0  0  0  0  0  0  0  0  0  0
    1.0681   -0.5695    0.0000 N   0  0  0  0  0  0  0  0  0  0  0  0
    1.2511    1.8880    0.0000 N   0  0  0  0  0  0  0  0  0  0  0  0
    1.0717    1.0833    0.0000 C   0  0  0  0  0  0  0  0  0  0  0  0
    1.7827    0.6647    0.0000 N   0  0  0  0  0  0  0  0  0  0  0  0
    2.3996    1.2128    0.0000 C   0  0  0  0  0  0  0  0  0  0  0  0
    2.0678    1.9682    0.0000 C   0  0  0  0  0  0  0  0  0  0  0  0
    0.3527   -0.1524    0.0000 C   0  0  0  0  0  0  0  0  0  0  0  0
    0.3584    0.6709    0.0000 C   0  0  0  0  0  0  0  0  0  0  0  0
   -0.3507    1.0858    0.0000 C   0  0  0  0  0  0  0  0  0  0  0  0
   -1.0661    0.6783    0.0000 C   0  0  0  0  0  0  0  0  0  0  0  0
   -1.0678   -0.1481    0.0000 C   0  0  0  0  0  0  0  0  0  0  0  0
   -0.3581   -0.5594    0.0000 C   0  0  0  0  0  0  0  0  0  0  0  0
   -1.7835   -0.5597    0.0000 O   0  0  0  0  0  0  0  0  0  0  0  0
  1  5  1  0  0  0  0
  1  2  2  0  0  0  0
  3  4  2  0  0  0  0
  4  9  1  0  0  0  0
  4  5  1  0  0  0  0
  5  6  1  0  0  0  0
  6  7  1  0  0  0  0
  7  3  1  0  0  0  0
  8  9  2  0  0  0  0
  8  2  1  0  0  0  0
  9 10  1  0  0  0  0
 10 11  2  0  0  0  0
 11 12  1  0  0  0  0
 12 13  2  0  0  0  0
 12 14  1  0  0  0  0
 13  8  1  0  0  0  0
M  END
$$$$
Cc1cnc(nc1)N
 OpenBabel07182308452D

  9  9  0  0  0  0  0  0  0  0999 V2000
   -1.3088   -0.0845    0.0000 C   0  0  0  0  0  0  0  0  0  0  0  0
   -2.0241    0.3260    0.0000 C   0  0  0  0  0  0  0  0  0  0  0  0
   -2.7378   -0.0875    0.0000 C   0  0  0  0  0  0  0  0  0  0  0  0
   -2.0241    1.1549    0.0000 C   0  0  0  0  0  0  0  0  0  0  0  0
   -1.3088    1.5734    0.0000 N   0  0  0  0  0  0  0  0  0  0  0  0
   -0.5934    1.1549    0.0000 C   0  0  0  0  0  0  0  0  0  0  0  0
    0.1221    1.5651    0.0000 N   0  0  0  0  0  0  0  0  0  0  0  0
   -0.5934    0.3260    0.0000 N   0  0  0  0  0  0  0  0  0  0  0  0
    0.1250    2.5496    0.0000 H   0  0  0  0  0  0  0  0  0  0  0  0
  1  2  1  0  0  0  0
  2  4  2  0  0  0  0
  3  2  1  0  0  0  0
  5  4  1  0  0  0  0
  5  6  2  0  0  0  0
  6  8  1  0  0  0  0
  7  6  1  0  0  0  0
  7  9  1  0  0  0  0
  8  1  2  0  0  0  0
M  END
$$$$
O=c1ccnc[nH]1
 OpenBabel07182308452D

  8  8  0  0  0  0  0  0  0  0999 V2000
    2.1368    1.6582    0.0000 C   0  0  0  0  0  0  0  0  0  0  0  0
    2.1339    0.8319    0.0000 N   0  0  0  0  0  0  0  0  0  0  0  0
    2.8440    0.4184    0.0000 C   0  0  0  0  0  0  0  0  0  0  0  0
    3.5617    0.8268    0.0000 C   0  0  0  0  0  0  0  0  0  0  0  0
    3.5646    1.6531    0.0000 C   0  0  0  0  0  0  0  0  0  0  0  0
    2.8500    2.0711    0.0000 N   0  0  0  0  0  0  0  0  0  0  0  0
    4.2755    2.0718    0.0000 O   0  0  0  0  0  0  0  0  0  0  0  0
    2.8522    3.0556    0.0000 H   0  0  0  0  0  0  0  0  0  0  0  0
  1  2  2  0  0  0  0
  1  6  1  0  0  0  0
  2  3  1  0  0  0  0
  3  4  2  0  0  0  0
  4  5  1  0  0  0  0
  5  6  1  0  0  0  0
  5  7  2  0  0  0  0
  6  8  1  0  0  0  0
M  END
$$$$
[O-]N=O
 OpenBabel07182308452D

  3  2  0  0  0  0  0  0  0  0999 V2000
    2.9013   -2.9288    0.0000 N   0  0  0  0  0  0  0  0  0  0  0  0
    3.7263   -2.9288    0.0000 O   0  5  0  0  0  0  0  0  0  0  0  0
    2.4888   -2.2143    0.0000 O   0  0  0  0  0  0  0  0  0  0  0  0
  2  1  1  0  0  0  0
  3  1  2  0  0  0  0
M  CHG  1   2  -1
M  END
$$$$
C1=NNc2c(C=C1)cccc2
 OpenBabel07182308452D

 12 13  0  0  0  0  0  0  0  0999 V2000
   -0.8374   -0.4033    0.0000 C   0  0  0  0  0  0  0  0  0  0  0  0
   -0.8374   -1.2283    0.0000 C   0  0  0  0  0  0  0  0  0  0  0  0
   -0.1230   -1.6408    0.0000 C   0  0  0  0  0  0  0  0  0  0  0  0
    0.5915   -1.2283    0.0000 C   0  0  0  0  0  0  0  0  0  0  0  0
    0.5915   -0.4033    0.0000 C   0  0  0  0  0  0  0  0  0  0  0  0
   -0.1230    0.0092    0.0000 C   0  0  0  0  0  0  0  0  0  0  0  0
    1.2365    0.1111    0.0000 C   0  0  0  0  0  0  0  0  0  0  0  0
    2.0408   -0.0725    0.0000 C   0  0  0  0  0  0  0  0  0  0  0  0
    2.3988   -0.8158    0.0000 C   0  0  0  0  0  0  0  0  0  0  0  0
    2.0408   -1.5591    0.0000 N   0  0  0  0  0  0  0  0  0  0  0  0
    1.2365   -1.7427    0.0000 N   0  0  0  0  0  0  0  0  0  0  0  0
    1.0174   -2.7025    0.0000 H   0  0  0  0  0  0  0  0  0  0  0  0
  1  2  2  0  0  0  0
  1  6  1  0  0  0  0
  2  3  1  0  0  0  0
  3  4  2  0  0  0  0
  4  5  1  0  0  0  0
  4 11  1  0  0  0  0
  5  6  2  0  0  0  0
  5  7  1  0  0  0  0
  7  8  2  0  0  0  0
  8  9  1  0  0  0  0
  9 10  2  0  0  0  0
 10 11  1  0  0  0  0
 11 12  1  0  0  0  0
M  END
$$$$
O=C1CC[C@@]2([C@@]3(C1)CCN([C@@H]2Cc1c3c(O)ccc1)C)O
 OpenBabel07182308452D

 23 26  0  0  1  0  0  0  0  0999 V2000
    0.0128   -2.4169    0.0000 O   0  0  0  0  0  0  0  0  0  0  0  0
   -0.4049   -1.6782    0.0000 C   0  0  0  0  0  0  0  0  0  0  0  0
   -1.2142   -1.6782    0.0000 C   0  0  0  0  0  0  0  0  0  0  0  0
   -1.6328   -0.9801    0.0000 C   0  0  0  0  0  0  0  0  0  0  0  0
   -1.2142   -0.2540    0.0000 C   0  0  0  0  0  0  0  0  0  0  0  0
   -0.4049   -0.2540    0.0000 C   0  0  0  0  0  0  0  0  0  0  0  0
    0.0146    0.4440    0.0000 C   0  0  0  0  0  0  0  0  0  0  0  0
    0.8240    0.4440    0.0000 C   0  0  1  0  0  0  0  0  0  0  0  0
    1.2156    1.1422    0.0000 N   0  0  0  0  0  0  0  0  0  0  0  0
    1.3721    1.9760    0.0000 C   0  0  0  0  0  0  0  0  0  0  0  0
    0.4053    1.1700    0.0000 C   0  0  0  0  0  0  0  0  0  0  0  0
    0.4053   -0.3660    0.0000 C   0  0  0  0  0  0  0  0  0  0  0  0
    0.8240   -0.9801    0.0000 C   0  0  2  0  0  0  0  0  0  0  0  0
    1.2156   -1.6782    0.0000 C   0  0  0  0  0  0  0  0  0  0  0  0
    2.0521   -1.6782    0.0000 C   0  0  0  0  0  0  0  0  0  0  0  0
    2.4809   -2.4104    0.0000 O   0  0  0  0  0  0  0  0  0  0  0  0
    2.4437   -0.9801    0.0000 C   0  0  0  0  0  0  0  0  0  0  0  0
    2.0521   -0.2540    0.0000 C   0  0  0  0  0  0  0  0  0  0  0  0
    1.2156   -0.2540    0.0000 C   0  0  1  0  0  0  0  0  0  0  0  0
    1.6444    0.4781    0.0000 O   0  0  0  0  0  0  0  0  0  0  0  0
    0.0146   -0.9801    0.0000 C   0  0  0  0  0  0  0  0  0  0  0  0
   -0.4630   -3.2241    0.0000 H   0  0  0  0  0  0  0  0  0  0  0  0
    2.6144    0.4720    0.0000 H   0  0  0  0  0  0  0  0  0  0  0  0
  1  2  1  0  0  0  0
  1 22  1  0  0  0  0
  2 21  2  0  0  0  0
  3  2  1  0  0  0  0
  3  4  2  0  0  0  0
  4  5  1  0  0  0  0
  5  6  2  0  0  0  0
  6 21  1  0  0  0  0
  7  6  1  0  0  0  0
  7  8  1  0  0  0  0
  8  9  1  0  0  0  0
  8 19  1  1  0  0  0
  9 11  1  0  0  0  0
 10  9  1  0  0  0  0
 11 12  1  0  0  0  0
 13 12  1  0  0  0  0
 13 19  1  6  0  0  0
 14 13  1  0  0  0  0
 15 14  1  0  0  0  0
 15 16  2  0  0  0  0
 17 15  1  0  0  0  0
 18 17  1  0  0  0  0
 18 19  1  0  0  0  0
 19 20  1  1  0  0  0
 20 23  1  0  0  0  0
 21 13  1  0  0  0  0
M  END
$$$$
FC(Cl)F
 OpenBabel07182308452D

  4  3  0  0  1  0  0  0  0  0999 V2000
   -0.7145   10.8911    0.0000 C   0  0  0  0  0  0  0  0  0  0  0  0
   -1.4289   11.3036    0.0000 F   0  0  0  0  0  0  0  0  0  0  0  0
   -0.3020   11.6055    0.0000 F   0  0  0  0  0  0  0  0  0  0  0  0
   -1.1270   10.1766    0.0000 Cl  0  0  0  0  0  0  0  0  0  0  0  0
  1  2  1  0  0  0  0
  1  3  1  0  0  0  0
  1  4  1  0  0  0  0
M  END
$$$$
O=C1NCCSSC[C@H](N)C(=O)N[C@H](C(=O)N[C@@H](C(=O)N[C@H](C(=O)NC1)C)C)C
 OpenBabel07182308452D

 35 35  0  0  1  0  0  0  0  0999 V2000
    3.7420    5.7389    0.0000 C   0  0  0  0  0  0  0  0  0  0  0  0
    4.3958    6.2421    0.0000 C   0  0  0  0  0  0  0  0  0  0  0  0
    4.7883    6.9677    0.0000 O   0  0  0  0  0  0  0  0  0  0  0  0
    5.1585    5.9276    0.0000 N   0  0  0  0  0  0  0  0  0  0  0  0
    5.2674    5.1098    0.0000 C   0  0  0  0  0  0  0  0  0  0  0  0
    4.6137    4.6066    0.0000 C   0  0  0  0  0  0  0  0  0  0  0  0
    4.7226    3.7888    0.0000 S   0  0  0  0  0  0  0  0  0  0  0  0
    4.0689    3.2855    0.0000 S   0  0  0  0  0  0  0  0  0  0  0  0
    4.1779    2.4678    0.0000 C   0  0  0  0  0  0  0  0  0  0  0  0
    3.5241    1.9645    0.0000 C   0  0  1  0  0  0  0  0  0  0  0  0
    3.6331    1.1468    0.0000 C   0  0  0  0  0  0  0  0  0  0  0  0
    4.3958    0.8322    0.0000 O   0  0  0  0  0  0  0  0  0  0  0  0
    2.9794    0.6435    0.0000 N   0  0  0  0  0  0  0  0  0  0  0  0
    2.2167    0.9580    0.0000 C   0  0  2  0  0  0  0  0  0  0  0  0
    2.1077    1.7758    0.0000 C   0  0  0  0  0  0  0  0  0  0  0  0
    2.7614    2.2791    0.0000 O   0  0  0  0  0  0  0  0  0  0  0  0
    1.3450    2.0903    0.0000 N   0  0  0  0  0  0  0  0  0  0  0  0
    1.2361    2.9081    0.0000 C   0  0  1  0  0  0  0  0  0  0  0  0
    1.8898    3.4114    0.0000 C   0  0  0  0  0  0  0  0  0  0  0  0
    2.6525    3.0968    0.0000 O   0  0  0  0  0  0  0  0  0  0  0  0
    1.7808    4.2291    0.0000 N   0  0  0  0  0  0  0  0  0  0  0  0
    2.4346    4.7324    0.0000 C   0  0  2  0  0  0  0  0  0  0  0  0
    2.3256    5.5502    0.0000 C   0  0  0  0  0  0  0  0  0  0  0  0
    1.8935    6.2529    0.0000 O   0  0  0  0  0  0  0  0  0  0  0  0
    2.9794    6.0534    0.0000 N   0  0  0  0  0  0  0  0  0  0  0  0
    1.6719    5.0469    0.0000 C   0  0  0  0  0  0  0  0  0  0  0  0
    0.4734    3.2226    0.0000 C   0  0  0  0  0  0  0  0  0  0  0  0
    1.5629    0.4548    0.0000 C   0  0  0  0  0  0  0  0  0  0  0  0
    4.2868    1.6500    0.0000 N   0  0  0  0  0  0  0  0  0  0  0  0
    5.9386    6.5281    0.0000 H   0  0  0  0  0  0  0  0  0  0  0  0
    3.1095   -0.3324    0.0000 H   0  0  0  0  0  0  0  0  0  0  0  0
    0.5649    1.4898    0.0000 H   0  0  0  0  0  0  0  0  0  0  0  0
    0.8706    4.6044    0.0000 H   0  0  0  0  0  0  0  0  0  0  0  0
    2.8494    7.0293    0.0000 H   0  0  0  0  0  0  0  0  0  0  0  0
    4.4168    0.6741    0.0000 H   0  0  0  0  0  0  0  0  0  0  0  0
  1  2  1  0  0  0  0
  1 25  1  0  0  0  0
  2  3  2  0  0  0  0
  2  4  1  0  0  0  0
  4  5  1  0  0  0  0
  4 30  1  0  0  0  0
  5  6  1  0  0  0  0
  6  7  1  0  0  0  0
  7  8  1  0  0  0  0
  8  9  1  0  0  0  0
  9 10  1  0  0  0  0
 10 11  1  0  0  0  0
 10 29  1  1  0  0  0
 11 12  2  0  0  0  0
 11 13  1  0  0  0  0
 13 14  1  0  0  0  0
 13 31  1  0  0  0  0
 14 15  1  0  0  0  0
 14 28  1  1  0  0  0
 15 16  2  0  0  0  0
 15 17  1  0  0  0  0
 17 18  1  0  0  0  0
 17 32  1  0  0  0  0
 18 19  1  0  0  0  0
 18 27  1  6  0  0  0
 19 20  2  0  0  0  0
 19 21  1  0  0  0  0
 21 22  1  0  0  0  0
 21 33  1  0  0  0  0
 22 23  1  0  0  0  0
 22 26  1  6  0  0  0
 23 24  2  0  0  0  0
 23 25  1  0  0  0  0
 25 34  1  0  0  0  0
 29 35  1  0  0  0  0
M  END
$$$$
N#Cc1ccccc1O
 OpenBabel07182308452D

  9  9  0  0  0  0  0  0  0  0999 V2000
   -0.8800    1.6191    0.0000 C   0  0  0  0  0  0  0  0  0  0  0  0
   -0.5445    2.3727    0.0000 C   0  0  0  0  0  0  0  0  0  0  0  0
   -1.0294    3.0401    0.0000 C   0  0  0  0  0  0  0  0  0  0  0  0
   -0.6938    3.7938    0.0000 C   0  0  0  0  0  0  0  0  0  0  0  0
   -0.3583    4.5475    0.0000 N   0  0  0  0  0  0  0  0  0  0  0  0
   -1.8498    2.9539    0.0000 C   0  0  0  0  0  0  0  0  0  0  0  0
   -2.1854    2.2003    0.0000 C   0  0  0  0  0  0  0  0  0  0  0  0
   -1.7005    1.5328    0.0000 C   0  0  0  0  0  0  0  0  0  0  0  0
   -2.3347    3.6213    0.0000 O   0  0  0  0  0  0  0  0  0  0  0  0
  1  2  2  0  0  0  0
  1  8  1  0  0  0  0
  2  3  1  0  0  0  0
  3  4  1  0  0  0  0
  3  6  2  0  0  0  0
  4  5  3  0  0  0  0
  6  9  1  0  0  0  0
  7  6  1  0  0  0  0
  8  7  2  0  0  0  0
M  END
$$$$
N[C@H]1COC(=CC1)C
 OpenBabel07182308452D

 10 10  0  0  1  0  0  0  0  0999 V2000
    0.7145   -0.4125    0.0000 C   0  0  0  0  0  0  0  0  0  0  0  0
    0.0000    0.0000    0.0000 C   0  0  1  0  0  0  0  0  0  0  0  0
    0.0000    0.8250    0.0000 C   0  0  0  0  0  0  0  0  0  0  0  0
    0.7145    1.2375    0.0000 C   0  0  0  0  0  0  0  0  0  0  0  0
    1.4289    0.8250    0.0000 C   0  0  0  0  0  0  0  0  0  0  0  0
    1.4289    0.0000    0.0000 O   0  0  0  0  0  0  0  0  0  0  0  0
    2.1434    1.2375    0.0000 C   0  0  0  0  0  0  0  0  0  0  0  0
   -0.7145   -0.4125    0.0000 N   0  0  0  0  0  0  0  0  0  0  0  0
   -1.5978    0.0975    0.0000 H   0  0  0  0  0  0  0  0  0  0  0  0
   -0.7145   -1.4325    0.0000 H   0  0  0  0  0  0  0  0  0  0  0  0
  1  2  1  0  0  0  0
  1  6  1  0  0  0  0
  2  3  1  0  0  0  0
  2  8  1  6  0  0  0
  3  4  1  0  0  0  0
  4  5  2  0  0  0  0
  5  6  1  0  0  0  0
  5  7  1  0  0  0  0
  8  9  1  0  0  0  0
  8 10  1  0  0  0  0
M  END
$$$$
Cc1cc(O)c2c(c1)C[C@@H]1N([C@H]2[C@H]2N([C@H]1O)[C@H]1COC(=O)[C@]3(CS[C@@H]2c2c1c1OCOc1c(c2O)C)NCCc1c3[nH]c2c1cccc2)C
 OpenBabel07182308452D

 55 64  0  0  0  0  0  0  0  0999 V2000
    0.8964   -3.3548    0.0000 C   0  0  0  0  0  0  0  0  0  0  0  0
    1.4684   -2.7607    0.0000 C   0  0  0  0  0  0  0  0  0  0  0  0
    1.2402   -1.9688    0.0000 C   0  0  0  0  0  0  0  0  0  0  0  0
    1.6774   -1.2704    0.0000 C   0  0  0  0  0  0  0  0  0  0  0  0
    2.4913   -1.1245    0.0000 C   0  0  0  0  0  0  0  0  0  0  0  0
    2.7717   -0.3491    0.0000 C   0  0  0  0  0  0  0  0  0  0  0  0
    2.2410    0.2805    0.0000 N   0  0  0  0  0  0  0  0  0  0  0  0
    1.4299    0.1375    0.0000 C   0  0  1  0  0  0  0  0  0  0  0  0
    1.4299    0.9624    0.0000 C   0  0  0  0  0  0  0  0  0  0  0  0
    0.7148    1.3749    0.0000 S   0  0  0  0  0  0  0  0  0  0  0  0
    0.7122    2.1998    0.0000 C   0  0  2  0  0  0  0  0  0  0  0  0
    1.4271    2.6123    0.0000 C   0  0  0  0  0  0  0  0  0  0  0  0
    2.1420    2.1998    0.0000 C   0  0  0  0  0  0  0  0  0  0  0  0
    2.1420    1.3749    0.0000 O   0  0  0  0  0  0  0  0  0  0  0  0
    2.8570    2.6123    0.0000 C   0  0  0  0  0  0  0  0  0  0  0  0
    3.5719    2.2025    0.0000 C   0  0  0  0  0  0  0  0  0  0  0  0
    2.8570    3.4373    0.0000 C   0  0  0  0  0  0  0  0  0  0  0  0
    3.4675    3.9899    0.0000 O   0  0  0  0  0  0  0  0  0  0  0  0
    3.1320    4.7434    0.0000 C   0  0  0  0  0  0  0  0  0  0  0  0
    2.3126    4.6582    0.0000 O   0  0  0  0  0  0  0  0  0  0  0  0
    2.1420    3.8497    0.0000 C   0  0  0  0  0  0  0  0  0  0  0  0
    1.4271    3.4373    0.0000 C   0  0  0  0  0  0  0  0  0  0  0  0
    0.7122    3.8497    0.0000 C   0  0  1  0  0  0  0  0  0  0  0  0
   -0.0027    3.4373    0.0000 N   0  0  3  0  0  0  0  0  0  0  0  0
   -0.7176    3.8497    0.0000 C   0  0  1  0  0  0  0  0  0  0  0  0
   -0.7176    4.6747    0.0000 O   0  0  0  0  0  0  0  0  0  0  0  0
   -1.4299    3.4345    0.0000 C   0  0  2  0  0  0  0  0  0  0  0  0
   -2.1448    3.0220    0.0000 C   0  0  0  0  0  0  0  0  0  0  0  0
   -2.1448    2.1971    0.0000 C   0  0  0  0  0  0  0  0  0  0  0  0
   -2.8597    1.7846    0.0000 C   0  0  0  0  0  0  0  0  0  0  0  0
   -2.8570    0.9596    0.0000 C   0  0  0  0  0  0  0  0  0  0  0  0
   -3.5719    0.5472    0.0000 C   0  0  0  0  0  0  0  0  0  0  0  0
   -2.1420    0.5472    0.0000 C   0  0  0  0  0  0  0  0  0  0  0  0
   -1.4299    0.9596    0.0000 C   0  0  0  0  0  0  0  0  0  0  0  0
   -0.7148    0.5499    0.0000 O   0  0  0  0  0  0  0  0  0  0  0  0
   -1.4299    1.7846    0.0000 C   0  0  0  0  0  0  0  0  0  0  0  0
   -0.7148    2.1998    0.0000 C   0  0  1  0  0  0  0  0  0  0  0  0
   -0.9266    1.4051    0.0000 H   0  0  0  0  0  0  0  0  0  0  0  0
   -1.4821    2.6150    0.0000 N   0  0  0  0  0  0  0  0  0  0  0  0
   -0.7040    3.1018    0.0000 C   0  0  0  0  0  0  0  0  0  0  0  0
    0.0000    2.6123    0.0000 C   0  0  2  0  0  0  0  0  0  0  0  0
   -0.3189    2.0568    0.0000 H   0  0  0  0  0  0  0  0  0  0  0  0
    0.6187    4.4877    0.0000 C   0  0  0  0  0  0  0  0  0  0  0  0
   -0.1621    1.3227    0.0000 O   0  0  0  0  0  0  0  0  0  0  0  0
    0.6159    0.2805    0.0000 C   0  0  0  0  0  0  0  0  0  0  0  0
   -0.0990   -0.3409    0.0000 O   0  0  0  0  0  0  0  0  0  0  0  0
    1.1466   -0.6379    0.0000 C   0  0  0  0  0  0  0  0  0  0  0  0
    0.3822   -0.9458    0.0000 N   0  0  0  0  0  0  0  0  0  0  0  0
    0.4400   -1.7708    0.0000 C   0  0  0  0  0  0  0  0  0  0  0  0
   -0.1319   -2.3647    0.0000 C   0  0  0  0  0  0  0  0  0  0  0  0
    0.0962   -3.1568    0.0000 C   0  0  0  0  0  0  0  0  0  0  0  0
    2.5888    1.2394    0.0000 H   0  0  0  0  0  0  0  0  0  0  0  0
    0.1224    5.1597    0.0000 H   0  0  0  0  0  0  0  0  0  0  0  0
   -0.7117   -0.3871    0.0000 H   0  0  0  0  0  0  0  0  0  0  0  0
   -0.4525   -0.4237    0.0000 H   0  0  0  0  0  0  0  0  0  0  0  0
  1  2  1  0  0  0  0
  2  3  2  0  0  0  0
  3  4  1  0  0  0  0
  3 49  1  0  0  0  0
  4  5  1  0  0  0  0
  4 47  2  0  0  0  0
  5  6  1  0  0  0  0
  6  7  1  0  0  0  0
  7  8  1  0  0  0  0
  7 52  1  0  0  0  0
  8  9  1  1  0  0  0
  8 45  1  0  0  0  0
 10  9  1  0  0  0  0
 11 10  1  0  0  0  0
 11 41  1  1  0  0  0
 12 11  1  0  0  0  0
 12 13  2  0  0  0  0
 13 14  1  0  0  0  0
 13 15  1  0  0  0  0
 15 16  1  0  0  0  0
 15 17  2  0  0  0  0
 17 18  1  0  0  0  0
 17 21  1  0  0  0  0
 18 19  1  0  0  0  0
 20 19  1  0  0  0  0
 21 20  1  0  0  0  0
 21 22  2  0  0  0  0
 22 23  1  0  0  0  0
 22 12  1  0  0  0  0
 23 24  1  1  0  0  0
 23 43  1  0  0  0  0
 25 24  1  6  0  0  0
 25 26  1  0  0  0  0
 26 53  1  0  0  0  0
 27 25  1  0  0  0  0
 27 28  1  1  0  0  0
 29 28  1  0  0  0  0
 29 30  2  0  0  0  0
 30 31  1  0  0  0  0
 31 32  1  0  0  0  0
 31 33  2  0  0  0  0
 33 34  1  0  0  0  0
 34 35  1  0  0  0  0
 34 36  2  0  0  0  0
 35 54  1  0  0  0  0
 36 37  1  0  0  0  0
 36 29  1  0  0  0  0
 37 38  1  0  0  0  0
 37 39  1  0  0  0  0
 37 41  1  1  0  0  0
 39 40  1  0  0  0  0
 39 27  1  0  0  0  0
 41 42  1  0  0  0  0
 41 24  1  6  0  0  0
 43 44  1  0  0  0  0
 45 44  1  0  0  0  0
 45 46  2  0  0  0  0
 47  8  1  0  0  0  0
 48 47  1  0  0  0  0
 48 55  1  0  0  0  0
 49 48  1  0  0  0  0
 49 50  2  0  0  0  0
 50 51  1  0  0  0  0
 51  1  2  0  0  0  0
M  END
$$$$
Cc1ccc(c(c1O)O)O
 OpenBabel07182308452D

 13 13  0  0  0  0  0  0  0  0999 V2000
    1.0745    0.6181    0.0000 C   0  0  0  0  0  0  0  0  0  0  0  0
    1.0733   -0.2093    0.0000 C   0  0  0  0  0  0  0  0  0  0  0  0
    1.7882   -0.6221    0.0000 C   0  0  0  0  0  0  0  0  0  0  0  0
    2.5046   -0.2088    0.0000 C   0  0  0  0  0  0  0  0  0  0  0  0
    2.5017    0.6216    0.0000 C   0  0  0  0  0  0  0  0  0  0  0  0
    1.7864    1.0308    0.0000 C   0  0  0  0  0  0  0  0  0  0  0  0
    3.2147    1.0368    0.0000 O   0  0  0  0  0  0  0  0  0  0  0  0
    1.7839    1.8559    0.0000 O   0  0  0  0  0  0  0  0  0  0  0  0
    0.3599    1.0303    0.0000 O   0  0  0  0  0  0  0  0  0  0  0  0
    0.3586   -0.6212    0.0000 C   0  0  0  0  0  0  0  0  0  0  0  0
    4.0279    0.5713    0.0000 H   0  0  0  0  0  0  0  0  0  0  0  0
    2.5939    2.3269    0.0000 H   0  0  0  0  0  0  0  0  0  0  0  0
    0.3595    1.9673    0.0000 H   0  0  0  0  0  0  0  0  0  0  0  0
  1  9  1  0  0  0  0
  1  2  2  0  0  0  0
  2 10  1  0  0  0  0
  2  3  1  0  0  0  0
  3  4  2  0  0  0  0
  4  5  1  0  0  0  0
  5  6  2  0  0  0  0
  5  7  1  0  0  0  0
  6  1  1  0  0  0  0
  6  8  1  0  0  0  0
  7 11  1  0  0  0  0
  8 12  1  0  0  0  0
  9 13  1  0  0  0  0
M  END
$$$$
Clc1ccccn1
 OpenBabel07182308452D

  7  7  0  0  0  0  0  0  0  0999 V2000
    0.7145   -0.4125    0.0000 C   0  0  0  0  0  0  0  0  0  0  0  0
    0.0000    0.0000    0.0000 C   0  0  0  0  0  0  0  0  0  0  0  0
   -0.7145   -0.4125    0.0000 Cl  0  0  0  0  0  0  0  0  0  0  0  0
    0.0000    0.8250    0.0000 N   0  0  0  0  0  0  0  0  0  0  0  0
    0.7145    1.2375    0.0000 C   0  0  0  0  0  0  0  0  0  0  0  0
    1.4289    0.8250    0.0000 C   0  0  0  0  0  0  0  0  0  0  0  0
    1.4289    0.0000    0.0000 C   0  0  0  0  0  0  0  0  0  0  0  0
  1  2  2  0  0  0  0
  1  7  1  0  0  0  0
  2  3  1  0  0  0  0
  2  4  1  0  0  0  0
  4  5  2  0  0  0  0
  5  6  1  0  0  0  0
  6  7  2  0  0  0  0
M  END
$$$$
N[C@@H]1CC[C@H]([C@@H](C1)O)S
 OpenBabel07182308452D

 12 12  0  0  0  0  0  0  0  0999 V2000
   -2.9403    0.5138    0.0000 C   0  0  2  0  0  0  0  0  0  0  0  0
   -2.9267    1.3837    0.0000 O   0  0  0  0  0  0  0  0  0  0  0  0
   -1.4755    0.5544    0.0000 S   0  0  0  0  0  0  0  0  0  0  0  0
   -4.4503   -1.2215    0.0000 N   0  0  0  0  0  0  0  0  0  0  0  0
   -3.6254   -0.7301    0.0000 C   0  0  1  0  0  0  0  0  0  0  0  0
   -3.6389    0.0946    0.0000 C   0  0  0  0  0  0  0  0  0  0  0  0
   -2.1965   -0.7166    0.0000 C   0  0  0  0  0  0  0  0  0  0  0  0
   -2.1965    0.0946    0.0000 C   0  0  2  0  0  0  0  0  0  0  0  0
   -2.8997   -1.1313    0.0000 C   0  0  0  0  0  0  0  0  0  0  0  0
   -2.0792    1.8555    0.0000 H   0  0  0  0  0  0  0  0  0  0  0  0
   -5.3405   -0.7236    0.0000 H   0  0  0  0  0  0  0  0  0  0  0  0
   -4.4364   -2.2414    0.0000 H   0  0  0  0  0  0  0  0  0  0  0  0
  1  8  1  0  0  0  0
  1  6  1  0  0  0  0
  1  2  1  1  0  0  0
  2 10  1  0  0  0  0
  4 11  1  0  0  0  0
  4 12  1  0  0  0  0
  5  9  1  0  0  0  0
  5  6  1  0  0  0  0
  5  4  1  1  0  0  0
  7  9  1  0  0  0  0
  7  8  1  0  0  0  0
  8  3  1  6  0  0  0
M  END
$$$$
C[C@H]1C[C@@H](O)[C@]2(C)C(C)CC[C@]3([C@H]([C@@H]1O)C)[C@H]2C(=O)CC3
 OpenBabel07182308452D

 23 25  0  0  0  0  0  0  0  0999 V2000
    1.4451   -0.1036    0.0000 C   0  0  1  0  0  0  0  0  0  0  0  0
    1.7155    0.6894    0.0000 C   0  0  0  0  0  0  0  0  0  0  0  0
    2.2248   -1.2314    0.0000 C   0  0  0  0  0  0  0  0  0  0  0  0
    2.9955   -1.4377    0.0000 C   0  0  0  0  0  0  0  0  0  0  0  0
    1.3981   -1.4311    0.0000 C   0  0  3  0  0  0  0  0  0  0  0  0
    1.9949   -2.4203    0.0000 O   0  0  0  0  0  0  0  0  0  0  0  0
    2.6481   -1.8635    0.0000 C   0  0  0  0  0  0  0  0  0  0  0  0
    0.5796   -0.0224    0.0000 O   0  0  0  0  0  0  0  0  0  0  0  0
    3.2748    0.7845    0.0000 C   0  0  2  0  0  0  0  0  0  0  0  0
    3.8339    1.3746    0.0000 O   0  0  0  0  0  0  0  0  0  0  0  0
    1.7786   -0.8067    0.0000 C   0  0  2  0  0  0  0  0  0  0  0  0
    3.3155   -0.7752    0.0000 C   0  0  2  0  0  0  0  0  0  0  0  0
    2.4906    1.0231    0.0000 C   0  0  1  0  0  0  0  0  0  0  0  0
    0.5796   -1.1673    0.0000 C   0  0  0  0  0  0  0  0  0  0  0  0
    3.6265    0.0224    0.0000 C   0  0  1  0  0  0  0  0  0  0  0  0
    2.5719   -1.0862    0.0000 C   0  0  1  0  0  0  0  0  0  0  0  0
    3.8789   -1.3837    0.0000 C   0  0  0  0  0  0  0  0  0  0  0  0
    3.4462   -2.1048    0.0000 C   0  0  0  0  0  0  0  0  0  0  0  0
    2.5449   -0.2298    0.0000 H   0  0  0  0  0  0  0  0  0  0  0  0
    3.0324    1.6453    0.0000 C   0  0  0  0  0  0  0  0  0  0  0  0
    4.4503   -0.0227    0.0000 C   0  0  0  0  0  0  0  0  0  0  0  0
    0.9788   -0.6042    0.0000 C   0  0  0  0  0  0  0  0  0  0  0  0
    4.7773    1.1489    0.0000 H   0  0  0  0  0  0  0  0  0  0  0  0
  1 11  1  6  0  0  0
  1  2  1  0  0  0  0
  1  8  1  0  0  0  0
  2 13  1  0  0  0  0
  3  4  1  0  0  0  0
  3  5  1  0  0  0  0
  5 14  1  0  0  0  0
  6  7  2  0  0  0  0
  7 16  1  0  0  0  0
  7 18  1  0  0  0  0
  9 15  1  0  0  0  0
  9 10  1  1  0  0  0
  9 13  1  0  0  0  0
 10 23  1  0  0  0  0
 11  5  1  0  0  0  0
 11 16  1  6  0  0  0
 11 22  1  0  0  0  0
 12 17  1  0  0  0  0
 12  4  1  0  0  0  0
 12 16  1  6  0  0  0
 13 20  1  6  0  0  0
 15 12  1  6  0  0  0
 15 21  1  0  0  0  0
 16 19  1  6  0  0  0
 17 18  1  0  0  0  0
M  END
$$$$
S
 OpenBabel07182308452D

  1  0  0  0  0  0  0  0  0  0999 V2000
   -8.2164   -0.2062    0.0000 S   0  0  0  0  0  0  0  0  0  0  0  0
M  END
$$$$
Oc1nc2c([nH]1)cccc2
 OpenBabel07182308452D

 11 12  0  0  0  0  0  0  0  0999 V2000
    3.3523    1.1104    0.0000 C   0  0  0  0  0  0  0  0  0  0  0  0
    3.3523    1.9354    0.0000 C   0  0  0  0  0  0  0  0  0  0  0  0
    2.6378    0.6979    0.0000 C   0  0  0  0  0  0  0  0  0  0  0  0
    2.6378    2.3479    0.0000 C   0  0  0  0  0  0  0  0  0  0  0  0
    1.9233    1.1104    0.0000 C   0  0  0  0  0  0  0  0  0  0  0  0
    1.9233    1.9354    0.0000 C   0  0  0  0  0  0  0  0  0  0  0  0
    0.6538    1.5229    0.0000 C   0  0  0  0  0  0  0  0  0  0  0  0
    1.1387    0.8555    0.0000 N   0  0  0  0  0  0  0  0  0  0  0  0
    1.1387    2.1904    0.0000 N   0  0  0  0  0  0  0  0  0  0  0  0
   -0.1712    1.5229    0.0000 O   0  0  0  0  0  0  0  0  0  0  0  0
   -0.6397    2.3344    0.0000 H   0  0  0  0  0  0  0  0  0  0  0  0
  2  1  2  0  0  0  0
  3  1  1  0  0  0  0
  4  2  1  0  0  0  0
  5  3  2  0  0  0  0
  6  4  2  0  0  0  0
  6  5  1  0  0  0  0
  8  5  1  0  0  0  0
  8  7  2  0  0  0  0
  9  6  1  0  0  0  0
  9  7  1  0  0  0  0
 10  7  1  0  0  0  0
 10 11  1  0  0  0  0
M  END
$$$$
NC1CCOCC1
 OpenBabel07182308452D

  7  7  0  0  0  0  0  0  0  0999 V2000
    0.0000   -1.0312    0.0000 N   0  0  0  0  0  0  0  0  0  0  0  0
   -0.7145   -1.4437    0.0000 C   0  0  0  0  0  0  0  0  0  0  0  0
   -1.4289   -1.0312    0.0000 C   0  0  0  0  0  0  0  0  0  0  0  0
   -2.1434   -1.4437    0.0000 C   0  0  0  0  0  0  0  0  0  0  0  0
   -2.1434   -2.2687    0.0000 O   0  0  0  0  0  0  0  0  0  0  0  0
   -1.4289   -2.6812    0.0000 C   0  0  0  0  0  0  0  0  0  0  0  0
   -0.7145   -2.2687    0.0000 C   0  0  0  0  0  0  0  0  0  0  0  0
  1  2  1  0  0  0  0
  2  3  1  0  0  0  0
  2  7  1  0  0  0  0
  3  4  1  0  0  0  0
  4  5  1  0  0  0  0
  6  5  1  0  0  0  0
  7  6  1  0  0  0  0
M  END
$$$$
Cc1cc(C)c(c(=O)[nH]1)C
 OpenBabel07182308452D

 11 11  0  0  0  0  0  0  0  0999 V2000
   -2.8579    1.4437    0.0000 C   0  0  0  0  0  0  0  0  0  0  0  0
   -3.5723    1.0312    0.0000 C   0  0  0  0  0  0  0  0  0  0  0  0
   -4.2868    1.4437    0.0000 C   0  0  0  0  0  0  0  0  0  0  0  0
   -4.2868    2.2686    0.0000 O   0  0  0  0  0  0  0  0  0  0  0  0
   -5.0013    1.0312    0.0000 N   0  0  0  0  0  0  0  0  0  0  0  0
   -5.0013    0.2062    0.0000 C   0  0  0  0  0  0  0  0  0  0  0  0
   -5.7157   -0.2062    0.0000 C   0  0  0  0  0  0  0  0  0  0  0  0
   -4.2868   -0.2062    0.0000 C   0  0  0  0  0  0  0  0  0  0  0  0
   -3.5723    0.2062    0.0000 C   0  0  0  0  0  0  0  0  0  0  0  0
   -2.8579   -0.2062    0.0000 C   0  0  0  0  0  0  0  0  0  0  0  0
   -5.8539    1.5235    0.0000 H   0  0  0  0  0  0  0  0  0  0  0  0
  1  2  1  0  0  0  0
  2  3  1  0  0  0  0
  2  9  2  0  0  0  0
  3  4  2  0  0  0  0
  3  5  1  0  0  0  0
  5  6  1  0  0  0  0
  5 11  1  0  0  0  0
  6  7  1  0  0  0  0
  8  6  2  0  0  0  0
  9  8  1  0  0  0  0
  9 10  1  0  0  0  0
M  END
$$$$
Cc1cccc2c1[nH]ccc2=O
 OpenBabel07182308452D

 12 13  0  0  0  0  0  0  0  0999 V2000
   -0.7145   -0.4125    0.0000 C   0  0  0  0  0  0  0  0  0  0  0  0
   -0.7145   -1.2375    0.0000 C   0  0  0  0  0  0  0  0  0  0  0  0
    0.0000   -1.6500    0.0000 C   0  0  0  0  0  0  0  0  0  0  0  0
    0.7145   -1.2375    0.0000 C   0  0  0  0  0  0  0  0  0  0  0  0
    0.7145   -0.4125    0.0000 C   0  0  0  0  0  0  0  0  0  0  0  0
    0.0000   -0.0000    0.0000 C   0  0  0  0  0  0  0  0  0  0  0  0
    0.0000    0.8250    0.0000 C   0  0  0  0  0  0  0  0  0  0  0  0
    1.4289   -0.0000    0.0000 N   0  0  0  0  0  0  0  0  0  0  0  0
    2.1434   -0.4125    0.0000 C   0  0  0  0  0  0  0  0  0  0  0  0
    2.1434   -1.2375    0.0000 C   0  0  0  0  0  0  0  0  0  0  0  0
    1.4289   -1.6500    0.0000 C   0  0  0  0  0  0  0  0  0  0  0  0
    1.4289   -2.4750    0.0000 O   0  0  0  0  0  0  0  0  0  0  0  0
  1  2  2  0  0  0  0
  1  6  1  0  0  0  0
  2  3  1  0  0  0  0
  3  4  2  0  0  0  0
  4  5  1  0  0  0  0
  4 11  1  0  0  0  0
  5  6  2  0  0  0  0
  5  8  1  0  0  0  0
  6  7  1  0  0  0  0
  8  9  1  0  0  0  0
  9 10  2  0  0  0  0
 10 11  1  0  0  0  0
 11 12  2  0  0  0  0
M  END
$$$$
N#Cc1ccccc1Cl
 OpenBabel07182308452D

  9  9  0  0  0  0  0  0  0  0999 V2000
   -4.1016   -0.8156    0.0000 C   0  0  0  0  0  0  0  0  0  0  0  0
   -3.3866   -0.4048    0.0000 C   0  0  0  0  0  0  0  0  0  0  0  0
   -2.6717   -0.8156    0.0000 C   0  0  0  0  0  0  0  0  0  0  0  0
   -2.6717   -1.6460    0.0000 C   0  0  0  0  0  0  0  0  0  0  0  0
   -3.3866   -2.0565    0.0000 C   0  0  0  0  0  0  0  0  0  0  0  0
   -4.1016   -1.6460    0.0000 C   0  0  0  0  0  0  0  0  0  0  0  0
   -4.8163   -2.0565    0.0000 C   0  0  0  0  0  0  0  0  0  0  0  0
   -5.5312   -2.4719    0.0000 N   0  0  0  0  0  0  0  0  0  0  0  0
   -4.8163   -0.4048    0.0000 Cl  0  0  0  0  0  0  0  0  0  0  0  0
  1  6  1  0  0  0  0
  1  9  1  0  0  0  0
  2  1  2  0  0  0  0
  3  2  1  0  0  0  0
  4  3  2  0  0  0  0
  5  4  1  0  0  0  0
  6  5  2  0  0  0  0
  6  7  1  0  0  0  0
  7  8  3  0  0  0  0
M  END
$$$$
O=C1C=C[C@]2(C(=C1)[C@@H](C)C[C@@H]1[C@@H]2C(=O)C[C@]2([C@H]1CC[C@H]2O)C)C
 OpenBabel07182308452D

 27 30  0  0  0  0  0  0  0  0999 V2000
    2.1785   -0.5886    0.0000 C   0  0  0  0  0  0  0  0  0  0  0  0
    0.6793   -1.5713    0.0000 C   0  0  0  0  0  0  0  0  0  0  0  0
    2.1785    0.7461    0.0000 C   0  0  2  0  0  0  0  0  0  0  0  0
    0.6793    0.9036    0.0000 C   0  0  0  0  0  0  0  0  0  0  0  0
    2.6636    0.0786    0.0000 C   0  0  0  0  0  0  0  0  0  0  0  0
   -0.7495   -0.7462    0.0000 C   0  0  2  0  0  0  0  0  0  0  0  0
   -0.0350    0.4911    0.0000 C   0  0  0  0  0  0  0  0  0  0  0  0
   -0.0350   -1.9838    0.0000 C   0  0  1  0  0  0  0  0  0  0  0  0
   -0.7495   -1.5713    0.0000 C   0  0  0  0  0  0  0  0  0  0  0  0
   -1.4640   -0.3338    0.0000 C   0  0  0  0  0  0  0  0  0  0  0  0
   -1.4640   -1.9838    0.0000 C   0  0  0  0  0  0  0  0  0  0  0  0
   -2.1783   -0.7462    0.0000 C   0  0  0  0  0  0  0  0  0  0  0  0
    0.6793   -0.7462    0.0000 C   0  0  2  0  0  0  0  0  0  0  0  0
    0.6793    0.0786    0.0000 H   0  0  0  0  0  0  0  0  0  0  0  0
   -0.0350   -0.3338    0.0000 C   0  0  1  0  0  0  0  0  0  0  0  0
   -0.0350   -1.1588    0.0000 H   0  0  0  0  0  0  0  0  0  0  0  0
    1.3938    0.4911    0.0000 C   0  0  2  0  0  0  0  0  0  0  0  0
    1.3938    1.3161    0.0000 C   0  0  0  0  0  0  0  0  0  0  0  0
    1.3938   -0.3338    0.0000 C   0  0  1  0  0  0  0  0  0  0  0  0
    1.3938   -1.1588    0.0000 H   0  0  0  0  0  0  0  0  0  0  0  0
   -2.8929   -1.9838    0.0000 O   0  0  0  0  0  0  0  0  0  0  0  0
   -2.1783   -1.5713    0.0000 C   0  0  0  0  0  0  0  0  0  0  0  0
   -0.7495    0.0786    0.0000 C   0  0  0  0  0  0  0  0  0  0  0  0
    2.8929    1.1587    0.0000 O   0  0  0  0  0  0  0  0  0  0  0  0
   -0.7495    0.9036    0.0000 O   0  0  0  0  0  0  0  0  0  0  0  0
   -0.0350   -2.8088    0.0000 C   0  0  0  0  0  0  0  0  0  0  0  0
    3.7330    0.6738    0.0000 H   0  0  0  0  0  0  0  0  0  0  0  0
  2  8  1  0  0  0  0
  3 17  1  6  0  0  0
  3  5  1  0  0  0  0
  3 24  1  0  0  0  0
  4  7  1  0  0  0  0
  5  1  1  0  0  0  0
  6 15  1  6  0  0  0
  6  9  1  0  0  0  0
  6 10  1  0  0  0  0
  6 23  1  0  0  0  0
  7 25  2  0  0  0  0
  8  9  1  0  0  0  0
  8 26  1  6  0  0  0
  9 11  2  0  0  0  0
 10 12  2  0  0  0  0
 11 22  1  0  0  0  0
 12 22  1  0  0  0  0
 13 19  1  6  0  0  0
 13  2  1  0  0  0  0
 13 14  1  0  0  0  0
 15 13  1  1  0  0  0
 15  7  1  0  0  0  0
 15 16  1  0  0  0  0
 17 19  1  1  0  0  0
 17  4  1  0  0  0  0
 17 18  1  0  0  0  0
 19  1  1  0  0  0  0
 19 20  1  6  0  0  0
 22 21  2  0  0  0  0
 24 27  1  0  0  0  0
M  END
$$$$
C1CONC1=O
 OpenBabel07182308452D

  7  7  0  0  0  0  0  0  0  0999 V2000
    3.4656    3.5277    0.0000 C   0  0  0  0  0  0  0  0  0  0  0  0
    4.1331    3.0428    0.0000 C   0  0  0  0  0  0  0  0  0  0  0  0
    4.9177    3.2977    0.0000 O   0  0  0  0  0  0  0  0  0  0  0  0
    3.8781    2.2581    0.0000 N   0  0  0  0  0  0  0  0  0  0  0  0
    3.0531    2.2581    0.0000 O   0  0  0  0  0  0  0  0  0  0  0  0
    2.7982    3.0428    0.0000 C   0  0  0  0  0  0  0  0  0  0  0  0
    4.4568    1.4616    0.0000 H   0  0  0  0  0  0  0  0  0  0  0  0
  1  2  1  0  0  0  0
  1  6  1  0  0  0  0
  2  3  2  0  0  0  0
  2  4  1  0  0  0  0
  4  5  1  0  0  0  0
  4  7  1  0  0  0  0
  5  6  1  0  0  0  0
M  END
$$$$
[Ag]
 OpenBabel07182308452D

  1  0  0  0  0  0  0  0  0  0999 V2000
    0.0000    0.0000    0.0000 Ag  0  0  0  0  0 15  0  0  0  0  0  0
M  END
$$$$
Clc1cnc2c(c1)cc[nH]2
 OpenBabel07182308452D

 11 12  0  0  0  0  0  0  0  0999 V2000
   -0.1435   -0.0305    0.0000 C   0  0  0  0  0  0  0  0  0  0  0  0
   -0.6284   -0.6979    0.0000 C   0  0  0  0  0  0  0  0  0  0  0  0
   -0.1435   -1.3654    0.0000 N   0  0  0  0  0  0  0  0  0  0  0  0
    0.6411   -1.1104    0.0000 C   0  0  0  0  0  0  0  0  0  0  0  0
    0.6411   -0.2854    0.0000 C   0  0  0  0  0  0  0  0  0  0  0  0
    1.3556    0.1271    0.0000 C   0  0  0  0  0  0  0  0  0  0  0  0
    2.0701   -0.2854    0.0000 C   0  0  0  0  0  0  0  0  0  0  0  0
    2.0701   -1.1104    0.0000 C   0  0  0  0  0  0  0  0  0  0  0  0
    1.3556   -1.5229    0.0000 N   0  0  0  0  0  0  0  0  0  0  0  0
    2.7845    0.1271    0.0000 Cl  0  0  0  0  0  0  0  0  0  0  0  0
   -0.4477   -2.3017    0.0000 H   0  0  0  0  0  0  0  0  0  0  0  0
  1  2  2  0  0  0  0
  1  5  1  0  0  0  0
  2  3  1  0  0  0  0
  3  4  1  0  0  0  0
  3 11  1  0  0  0  0
  4  5  1  0  0  0  0
  4  9  2  0  0  0  0
  5  6  2  0  0  0  0
  6  7  1  0  0  0  0
  7  8  2  0  0  0  0
  7 10  1  0  0  0  0
  8  9  1  0  0  0  0
M  END
$$$$
[Si]
 OpenBabel07182308452D

  1  0  0  0  0  0  0  0  0  0999 V2000
    0.0000    0.0000    0.0000 Si  0  0  0  0  0 15  0  0  0  0  0  0
M  END
$$$$
C/C/1=C\CC[C@@]2(C)O[C@H]2[C@@H]2[C@@H](CC1)C(=C)C(=O)O2
 OpenBabel07182308452D

 18 20  0  0  1  0  0  0  0  0999 V2000
    4.3767    1.7403    0.0000 C   0  0  0  0  0  0  0  0  0  0  0  0
    4.2296    2.5521    0.0000 C   0  0  0  0  0  0  0  0  0  0  0  0
    4.9561    2.9429    0.0000 C   0  0  0  0  0  0  0  0  0  0  0  0
    5.5523    2.3727    0.0000 C   0  0  0  0  0  0  0  0  0  0  0  0
    5.6995    1.5609    0.0000 C   0  0  0  0  0  0  0  0  0  0  0  0
    5.3414    0.8177    0.0000 C   0  0  2  0  0  0  0  0  0  0  0  0
    4.6149    0.4268    0.0000 C   0  0  1  0  0  0  0  0  0  0  0  0
    5.3166   -0.0070    0.0000 O   0  0  0  0  0  0  0  0  0  0  0  0
    3.7974    0.5377    0.0000 C   0  0  2  0  0  0  0  0  0  0  0  0
    3.2012    1.1079    0.0000 C   0  0  1  0  0  0  0  0  0  0  0  0
    3.0540    1.9197    0.0000 C   0  0  0  0  0  0  0  0  0  0  0  0
    3.4121    2.6629    0.0000 C   0  0  0  0  0  0  0  0  0  0  0  0
    2.4746    0.7171    0.0000 C   0  0  0  0  0  0  0  0  0  0  0  0
    1.7314    1.0752    0.0000 C   0  0  0  0  0  0  0  0  0  0  0  0
    2.6218   -0.0947    0.0000 C   0  0  0  0  0  0  0  0  0  0  0  0
    2.0516   -0.6909    0.0000 O   0  0  0  0  0  0  0  0  0  0  0  0
    3.4393   -0.2055    0.0000 O   0  0  0  0  0  0  0  0  0  0  0  0
    6.1429    0.6219    0.0000 C   0  0  0  0  0  0  0  0  0  0  0  0
  1  2  1  0  0  0  0
  2  3  2  0  0  0  0
  2 12  1  0  0  0  0
  3  4  1  0  0  0  0
  4  5  1  0  0  0  0
  5  6  1  0  0  0  0
  6  8  1  0  0  0  0
  6 18  1  6  0  0  0
  7  6  1  1  0  0  0
  7  8  1  0  0  0  0
  7  9  1  0  0  0  0
  9 10  1  0  0  0  0
  9 17  1  1  0  0  0
 10 11  1  6  0  0  0
 10 13  1  0  0  0  0
 11 12  1  0  0  0  0
 13 14  2  0  0  0  0
 13 15  1  0  0  0  0
 15 16  2  0  0  0  0
 15 17  1  0  0  0  0
M  END
$$$$
[90Y]
 OpenBabel07182308452D

  1  0  0  0  0  0  0  0  0  0999 V2000
    0.0000    0.0000    0.0000 Y   0  0  0  0  0 15  0  0  0  0  0  0
M  ISO  1   1  90
M  END
$$$$
CN(=O)(C)C
 OpenBabel07182308452D

  5  4  0  0  0  0  0  0  0  0999 V2000
    5.9471   -3.7578    0.0000 C   0  0  0  0  0  0  0  0  0  0  0  0
    5.6451   -2.6308    0.0000 C   0  0  0  0  0  0  0  0  0  0  0  0
    4.5181   -2.9328    0.0000 C   0  0  0  0  0  0  0  0  0  0  0  0
    5.2326   -3.3453    0.0000 N   0  0  0  0  0  0  0  0  0  0  0  0
    4.8201   -4.0597    0.0000 O   0  0  0  0  0  0  0  0  0  0  0  0
  4  1  1  0  0  0  0
  4  2  1  0  0  0  0
  4  3  1  0  0  0  0
  5  4  2  0  0  0  0
M  END
$$$$
O[Ca]O
 OpenBabel07182308452D

  3  2  0  0  0  0  0  0  0  0999 V2000
    1.6240   -1.4366    0.0000 O   0  0  0  0  0  0  0  0  0  0  0  0
   -0.3268   -1.4404    0.0000 O   0  0  0  0  0  0  0  0  0  0  0  0
    0.5463   -1.4364    0.0000 Ca  0  0  0  0  0  0  0  0  0  0  0  0
  2  3  1  0  0  0  0
  3  1  1  0  0  0  0
M  END
$$$$
O=C1CO[Pt](O1)(N)N
 OpenBabel07182308452D

 16 16  0  0  0  0  0  0  0  0999 V2000
    0.7226   -0.1353    0.0000 O   0  0  0  0  0  0  0  0  0  0  0  0
   -0.6122   -0.1352    0.0000 O   0  0  0  0  0  0  0  0  0  0  0  0
   -0.3573   -0.9199    0.0000 C   0  0  0  0  0  0  0  0  0  0  0  0
    0.4677   -0.9199    0.0000 C   0  0  0  0  0  0  0  0  0  0  0  0
   -0.8424   -1.5872    0.0000 O   0  0  0  0  0  0  0  0  0  0  0  0
    0.0552    0.3496    0.0000 Pt  0  0  0  0  0  0  0  0  0  0  0  0
    0.7697    1.5872    0.0000 H   0  0  0  0  0  0  0  0  0  0  0  0
    1.4842    0.3496    0.0000 H   0  0  0  0  0  0  0  0  0  0  0  0
    0.7697    0.7621    0.0000 N   0  0  0  0  0  0  0  0  0  0  0  0
    1.1822    1.4766    0.0000 H   0  0  0  0  0  0  0  0  0  0  0  0
   -0.6592    1.5872    0.0000 H   0  0  0  0  0  0  0  0  0  0  0  0
   -1.3737    0.3496    0.0000 H   0  0  0  0  0  0  0  0  0  0  0  0
   -0.6592    0.7621    0.0000 N   0  0  0  0  0  0  0  0  0  0  0  0
   -1.4842    0.7621    0.0000 H   0  0  0  0  0  0  0  0  0  0  0  0
    0.3453   -0.1654    0.0000 H   0  0  0  0  0  0  0  0  0  0  0  0
   -0.5685   -0.2539    0.0000 H   0  0  0  0  0  0  0  0  0  0  0  0
  1  6  1  0  0  0  0
  2  3  1  0  0  0  0
  3  4  1  0  0  0  0
  3  5  2  0  0  0  0
  4  1  1  0  0  0  0
  6  2  1  0  0  0  0
  6 13  1  0  0  0  0
  6  9  1  0  0  0  0
  9  7  1  0  0  0  0
  9  8  1  0  0  0  0
  9 10  1  0  0  0  0
  9 15  1  0  0  0  0
 13 11  1  0  0  0  0
 13 12  1  0  0  0  0
 13 14  1  0  0  0  0
 13 16  1  0  0  0  0
M  END
$$$$
N[C@@H]1C[C@H](C1)[18F]
 OpenBabel07182308452D

  8  8  0  0  0  0  0  0  0  0999 V2000
   -0.9196   -0.3017    0.0000 C   0  0  0  0  0  0  0  0  0  0  0  0
   -0.3362    0.2816    0.0000 C   0  0  1  0  0  0  0  0  0  0  0  0
    0.2471   -0.3017    0.0000 C   0  0  0  0  0  0  0  0  0  0  0  0
   -0.3362   -0.8851    0.0000 C   0  0  1  0  0  0  0  0  0  0  0  0
   -0.3362   -1.7102    0.0000 F   0  0  0  0  0  0  0  0  0  0  0  0
   -0.7673    0.9851    0.0000 N   0  0  0  0  0  0  0  0  0  0  0  0
   -0.2806    1.8815    0.0000 H   0  0  0  0  0  0  0  0  0  0  0  0
   -1.7870    0.9584    0.0000 H   0  0  0  0  0  0  0  0  0  0  0  0
  1  2  1  0  0  0  0
  1  4  1  0  0  0  0
  2  3  1  0  0  0  0
  2  6  1  6  0  0  0
  3  4  1  0  0  0  0
  4  5  1  1  0  0  0
  6  7  1  0  0  0  0
  6  8  1  0  0  0  0
M  ISO  1   5  18
M  END
$$$$
Oc1ccc2c(c1)oc(=O)cc2
 OpenBabel07182308452D

 13 14  0  0  1  0  0  0  0  0999 V2000
    0.7145   -1.2375    0.0000 C   0  0  0  0  0  0  0  0  0  0  0  0
    0.7145   -0.4125    0.0000 C   0  0  0  0  0  0  0  0  0  0  0  0
    0.0000    0.0000    0.0000 O   0  0  0  0  0  0  0  0  0  0  0  0
    1.4289    0.0000    0.0000 C   0  0  0  0  0  0  0  0  0  0  0  0
    2.1434   -0.4125    0.0000 C   0  0  0  0  0  0  0  0  0  0  0  0
    2.8579    0.0000    0.0000 O   0  0  0  0  0  0  0  0  0  0  0  0
    3.5724   -0.4125    0.0000 C   0  0  0  0  0  0  0  0  0  0  0  0
    4.2868    0.0000    0.0000 O   0  0  0  0  0  0  0  0  0  0  0  0
    3.5724   -1.2375    0.0000 C   0  0  0  0  0  0  0  0  0  0  0  0
    2.8579   -1.6500    0.0000 C   0  0  0  0  0  0  0  0  0  0  0  0
    2.1434   -1.2375    0.0000 C   0  0  0  0  0  0  0  0  0  0  0  0
    1.4289   -1.6500    0.0000 C   0  0  0  0  0  0  0  0  0  0  0  0
   -0.0000    0.9370    0.0000 H   0  0  0  0  0  0  0  0  0  0  0  0
  1  2  2  0  0  0  0
  1 12  1  0  0  0  0
  2  3  1  0  0  0  0
  2  4  1  0  0  0  0
  3 13  1  0  0  0  0
  4  5  2  0  0  0  0
  5  6  1  0  0  0  0
  5 11  1  0  0  0  0
  6  7  1  0  0  0  0
  7  8  2  0  0  0  0
  7  9  1  0  0  0  0
  9 10  2  0  0  0  0
 10 11  1  0  0  0  0
 11 12  2  0  0  0  0
M  END
$$$$
O=c1[nH]cnc2c1nc[nH]2
 OpenBabel07182308452D

 11 12  0  0  0  0  0  0  0  0999 V2000
   -4.0651    5.9330    0.0000 N   0  0  0  0  0  0  0  0  0  0  0  0
   -3.2805    6.1879    0.0000 C   0  0  0  0  0  0  0  0  0  0  0  0
   -3.2805    7.0129    0.0000 C   0  0  0  0  0  0  0  0  0  0  0  0
   -4.0651    7.2679    0.0000 N   0  0  0  0  0  0  0  0  0  0  0  0
   -4.5500    6.6004    0.0000 C   0  0  0  0  0  0  0  0  0  0  0  0
   -2.5660    7.4254    0.0000 C   0  0  0  0  0  0  0  0  0  0  0  0
   -1.8516    7.0129    0.0000 N   0  0  0  0  0  0  0  0  0  0  0  0
   -1.8516    6.1879    0.0000 C   0  0  0  0  0  0  0  0  0  0  0  0
   -2.5660    5.7754    0.0000 N   0  0  0  0  0  0  0  0  0  0  0  0
   -2.5660    8.2504    0.0000 O   0  0  0  0  0  0  0  0  0  0  0  0
   -0.9990    7.5051    0.0000 H   0  0  0  0  0  0  0  0  0  0  0  0
  1  2  1  0  0  0  0
  1  5  1  0  0  0  0
  2  3  2  0  0  0  0
  2  9  1  0  0  0  0
  3  4  1  0  0  0  0
  3  6  1  0  0  0  0
  4  5  2  0  0  0  0
  6  7  1  0  0  0  0
  6 10  2  0  0  0  0
  7  8  1  0  0  0  0
  7 11  1  0  0  0  0
  8  9  2  0  0  0  0
M  END
$$$$
O=C1C=C[C@]2(C(=C1)CC[C@@H]1[C@]2(F)C(=O)C[C@]2([C@H]1C[C@@H]([C@H]2O)C)C)C
 OpenBabel07182308452D

 28 31  0  0  1  0  0  0  0  0999 V2000
    7.9362   -1.3437    0.0000 C   0  0  0  0  0  0  0  0  0  0  0  0
    3.9503    0.0961    0.0000 C   0  0  0  0  0  0  0  0  0  0  0  0
    6.4662    0.4982    0.0000 C   0  0  0  0  0  0  0  0  0  0  0  0
    3.9215   -2.0864    0.0000 C   0  0  0  0  0  0  0  0  0  0  0  0
    4.7336   -1.9412    0.0000 C   0  0  0  0  0  0  0  0  0  0  0  0
    2.3261   -0.1943    0.0000 C   0  0  0  0  0  0  0  0  0  0  0  0
    3.1382   -0.0491    0.0000 C   0  0  0  0  0  0  0  0  0  0  0  0
    6.4774   -1.5264    0.0000 C   0  0  0  0  0  0  0  0  0  0  0  0
    2.5776   -1.6009    0.0000 C   0  0  0  0  0  0  0  0  0  0  0  0
    5.5745    0.3866    0.0000 C   0  0  0  0  0  0  0  0  0  0  0  0
    7.1602   -1.0634    0.0000 C   0  0  1  0  0  0  0  0  0  0  0  0
    3.3897   -1.4557    0.0000 C   0  0  0  0  0  0  0  0  0  0  0  0
    2.0458   -0.9702    0.0000 C   0  0  0  0  0  0  0  0  0  0  0  0
    5.0139   -1.1653    0.0000 C   0  0  1  0  0  0  0  0  0  0  0  0
    5.8261   -1.0201    0.0000 C   0  0  1  0  0  0  0  0  0  0  0  0
    4.7624    0.2414    0.0000 C   0  0  0  0  0  0  0  0  0  0  0  0
    3.6700   -0.6798    0.0000 C   0  0  2  0  0  0  0  0  0  0  0  0
    6.1064   -0.2441    0.0000 C   0  0  2  0  0  0  0  0  0  0  0  0
    4.4821   -0.5346    0.0000 C   0  0  2  0  0  0  0  0  0  0  0  0
    6.9309   -0.2709    0.0000 C   0  0  2  0  0  0  0  0  0  0  0  0
    4.4226    0.2883    0.0000 F   0  0  0  0  0  0  0  0  0  0  0  0
    1.2336   -1.1154    0.0000 O   0  0  0  0  0  0  0  0  0  0  0  0
    4.2306    0.8721    0.0000 O   0  0  0  0  0  0  0  0  0  0  0  0
    6.8714    0.5519    0.0000 O   0  0  0  0  0  0  0  0  0  0  0  0
    7.7622   -0.4993    0.0000 H   0  0  0  0  0  0  0  0  0  0  0  0
    5.5458   -1.7960    0.0000 H   0  0  0  0  0  0  0  0  0  0  0  0
    5.2942   -0.3894    0.0000 H   0  0  0  0  0  0  0  0  0  0  0  0
    7.6743    1.0962    0.0000 H   0  0  0  0  0  0  0  0  0  0  0  0
  5  4  1  0  0  0  0
  7  6  2  0  0  0  0
 11  1  1  0  0  0  0
 11  8  1  0  0  0  0
 11 25  1  6  0  0  0
 12  4  1  0  0  0  0
 12  9  2  0  0  0  0
 13  6  1  0  0  0  0
 13  9  1  0  0  0  0
 14  5  1  0  0  0  0
 14 15  1  6  0  0  0
 14 26  1  0  0  0  0
 15  8  1  0  0  0  0
 15 18  1  1  0  0  0
 15 27  1  0  0  0  0
 16 10  1  0  0  0  0
 17  2  1  0  0  0  0
 17  7  1  0  0  0  0
 17 12  1  0  0  0  0
 17 19  1  6  0  0  0
 18  3  1  1  0  0  0
 18 10  1  0  0  0  0
 19 14  1  6  0  0  0
 19 16  1  0  0  0  0
 19 21  1  0  0  0  0
 20 11  1  6  0  0  0
 20 18  1  0  0  0  0
 20 24  1  0  0  0  0
 22 13  2  0  0  0  0
 23 16  2  0  0  0  0
 24 28  1  0  0  0  0
M  END
$$$$
S[C@@H]1CNCC1
 OpenBabel07182308452D

  6  6  0  0  0  0  0  0  0  0999 V2000
    0.7447    1.2640    0.0000 N   0  0  0  0  0  0  0  0  0  0  0  0
    1.4122    1.7490    0.0000 C   0  0  0  0  0  0  0  0  0  0  0  0
    0.0773    1.7490    0.0000 C   0  0  0  0  0  0  0  0  0  0  0  0
    0.3323    2.5336    0.0000 C   0  0  2  0  0  0  0  0  0  0  0  0
    1.1573    2.5336    0.0000 C   0  0  0  0  0  0  0  0  0  0  0  0
   -0.1524    3.2012    0.0000 S   0  0  0  0  0  0  0  0  0  0  0  0
  1  3  1  0  0  0  0
  2  1  1  0  0  0  0
  2  5  1  0  0  0  0
  3  4  1  0  0  0  0
  4  5  1  0  0  0  0
  4  6  1  1  0  0  0
M  END
$$$$
Cc1ccc(c(c1)Cl)O
 OpenBabel07182308452D

  9  9  0  0  0  0  0  0  0  0999 V2000
    1.4289   -0.0000    0.0000 C   0  0  0  0  0  0  0  0  0  0  0  0
    1.4289    0.8250    0.0000 C   0  0  0  0  0  0  0  0  0  0  0  0
    0.0000   -0.0000    0.0000 C   0  0  0  0  0  0  0  0  0  0  0  0
    0.7145   -1.2375    0.0000 C   0  0  0  0  0  0  0  0  0  0  0  0
    0.7145   -0.4125    0.0000 C   0  0  0  0  0  0  0  0  0  0  0  0
    0.0000    0.8250    0.0000 C   0  0  0  0  0  0  0  0  0  0  0  0
    0.7145    1.2375    0.0000 C   0  0  0  0  0  0  0  0  0  0  0  0
   -0.7145    1.2375    0.0000 Cl  0  0  0  0  0  0  0  0  0  0  0  0
    0.7145    2.0625    0.0000 O   0  0  0  0  0  0  0  0  0  0  0  0
  2  1  2  0  0  0  0
  5  1  1  0  0  0  0
  5  3  2  0  0  0  0
  5  4  1  0  0  0  0
  6  3  1  0  0  0  0
  7  2  1  0  0  0  0
  7  6  2  0  0  0  0
  8  6  1  0  0  0  0
  9  7  1  0  0  0  0
M  END
$$$$
O=C1NCCSSC[C@@H]2NC(=O)[C@H](C)NC(=O)[C@H](C)NC(=O)CCSSC[C@@H](C(=O)NCC(=O)NC1)NC(=O)[C@H](C)NC(=O)CNC(=O)[C@@H](NC(=O)CNC2=O)C
 OpenBabel07182308452D

 71 72  0  0  0  0  0  0  0  0999 V2000
   -9.7288   -0.2202    0.0000 C   0  0  0  0  0  0  0  0  0  0  0  0
   -9.7288   -1.0279    0.0000 C   0  0  0  0  0  0  0  0  0  0  0  0
   -7.9299   -2.7167    0.0000 S   0  0  0  0  0  0  0  0  0  0  0  0
   -8.9946    0.2203    0.0000 C   0  0  0  0  0  0  0  0  0  0  0  0
   -8.9946    1.0279    0.0000 O   0  0  0  0  0  0  0  0  0  0  0  0
   -8.2603   -0.2202    0.0000 N   0  0  0  0  0  0  0  0  0  0  0  0
   -7.5628    0.2203    0.0000 C   0  0  1  0  0  0  0  0  0  0  0  0
   -7.5628    1.0279    0.0000 C   0  0  0  0  0  0  0  0  0  0  0  0
   -6.8286   -0.2202    0.0000 C   0  0  0  0  0  0  0  0  0  0  0  0
   -6.8286   -1.0279    0.0000 O   0  0  0  0  0  0  0  0  0  0  0  0
   -6.1310    0.2203    0.0000 N   0  0  0  0  0  0  0  0  0  0  0  0
   -5.3967   -0.2202    0.0000 C   0  0  1  0  0  0  0  0  0  0  0  0
   -5.3967   -1.0279    0.0000 C   0  0  0  0  0  0  0  0  0  0  0  0
   -4.6624    0.2203    0.0000 C   0  0  0  0  0  0  0  0  0  0  0  0
   -4.6624    1.0279    0.0000 O   0  0  0  0  0  0  0  0  0  0  0  0
   -3.9649   -0.2202    0.0000 N   0  0  0  0  0  0  0  0  0  0  0  0
   -3.2307    0.2203    0.0000 C   0  0  1  0  0  0  0  0  0  0  0  0
   -3.1572    1.7622    0.0000 C   0  0  0  0  0  0  0  0  0  0  0  0
   -1.6520    2.6800    0.0000 S   0  0  0  0  0  0  0  0  0  0  0  0
   -2.5331   -0.2202    0.0000 C   0  0  0  0  0  0  0  0  0  0  0  0
   -2.5331   -1.0279    0.0000 O   0  0  0  0  0  0  0  0  0  0  0  0
   -1.7989    0.2203    0.0000 N   0  0  0  0  0  0  0  0  0  0  0  0
   -1.0646   -0.2202    0.0000 C   0  0  0  0  0  0  0  0  0  0  0  0
   -0.3672    0.2203    0.0000 C   0  0  0  0  0  0  0  0  0  0  0  0
   -0.3672    1.0279    0.0000 O   0  0  0  0  0  0  0  0  0  0  0  0
    0.3671   -0.2202    0.0000 N   0  0  0  0  0  0  0  0  0  0  0  0
    1.0646    0.2203    0.0000 C   0  0  1  0  0  0  0  0  0  0  0  0
    1.0646    1.0279    0.0000 C   0  0  0  0  0  0  0  0  0  0  0  0
    1.7988   -0.2202    0.0000 C   0  0  0  0  0  0  0  0  0  0  0  0
    1.7988   -1.0279    0.0000 O   0  0  0  0  0  0  0  0  0  0  0  0
    2.5330    0.2203    0.0000 N   0  0  0  0  0  0  0  0  0  0  0  0
    3.2307   -0.2202    0.0000 C   0  0  0  0  0  0  0  0  0  0  0  0
    3.9649    0.2203    0.0000 C   0  0  0  0  0  0  0  0  0  0  0  0
    3.9649    1.0279    0.0000 O   0  0  0  0  0  0  0  0  0  0  0  0
    4.6624   -0.2202    0.0000 N   0  0  0  0  0  0  0  0  0  0  0  0
    5.3967    0.2203    0.0000 C   0  0  1  0  0  0  0  0  0  0  0  0
    5.3967    1.0279    0.0000 C   0  0  0  0  0  0  0  0  0  0  0  0
    6.1310   -0.2202    0.0000 C   0  0  0  0  0  0  0  0  0  0  0  0
    6.1310   -1.0279    0.0000 O   0  0  0  0  0  0  0  0  0  0  0  0
    6.8285    0.2203    0.0000 N   0  0  0  0  0  0  0  0  0  0  0  0
    7.5628   -0.2202    0.0000 C   0  0  1  0  0  0  0  0  0  0  0  0
    7.5628   -1.0279    0.0000 C   0  0  0  0  0  0  0  0  0  0  0  0
    9.0679   -2.5331    0.0000 S   0  0  0  0  0  0  0  0  0  0  0  0
    8.2602    0.2203    0.0000 C   0  0  0  0  0  0  0  0  0  0  0  0
    8.2602    1.0279    0.0000 O   0  0  0  0  0  0  0  0  0  0  0  0
    8.9945   -0.2202    0.0000 N   0  0  0  0  0  0  0  0  0  0  0  0
    9.7288    0.2203    0.0000 C   0  0  0  0  0  0  0  0  0  0  0  0
   10.4263   -0.2202    0.0000 C   0  0  0  0  0  0  0  0  0  0  0  0
   10.4263   -1.0279    0.0000 O   0  0  0  0  0  0  0  0  0  0  0  0
   11.1605    0.2203    0.0000 N   0  0  0  0  0  0  0  0  0  0  0  0
   11.8948   -0.2202    0.0000 C   0  0  0  0  0  0  0  0  0  0  0  0
   12.5923    0.2203    0.0000 C   0  0  0  0  0  0  0  0  0  0  0  0
   12.5923    1.0279    0.0000 O   0  0  0  0  0  0  0  0  0  0  0  0
   13.3267   -0.2202    0.0000 N   0  0  0  0  0  0  0  0  0  0  0  0
   14.0242    0.2203    0.0000 C   0  0  0  0  0  0  0  0  0  0  0  0
   13.9874    1.5419    0.0000 C   0  0  0  0  0  0  0  0  0  0  0  0
   15.3458    2.6433    0.0000 S   0  0  0  0  0  0  0  0  0  0  0  0
    8.8477    0.7342    0.0000 H   0  0  0  0  0  0  0  0  0  0  0  0
    6.6816   -0.6975    0.0000 H   0  0  0  0  0  0  0  0  0  0  0  0
   -3.2307   -0.8076    0.0000 H   0  0  0  0  0  0  0  0  0  0  0  0
   -8.2490   -1.2046    0.0000 H   0  0  0  0  0  0  0  0  0  0  0  0
   -6.1423    1.2047    0.0000 H   0  0  0  0  0  0  0  0  0  0  0  0
   -3.9762   -1.2046    0.0000 H   0  0  0  0  0  0  0  0  0  0  0  0
   -1.7989    1.2048    0.0000 H   0  0  0  0  0  0  0  0  0  0  0  0
    0.3784   -1.2046    0.0000 H   0  0  0  0  0  0  0  0  0  0  0  0
    2.5442    1.2047    0.0000 H   0  0  0  0  0  0  0  0  0  0  0  0
    4.6511   -1.2046    0.0000 H   0  0  0  0  0  0  0  0  0  0  0  0
    6.8172    1.2047    0.0000 H   0  0  0  0  0  0  0  0  0  0  0  0
    8.9945   -1.2047    0.0000 H   0  0  0  0  0  0  0  0  0  0  0  0
   11.1605    1.2048    0.0000 H   0  0  0  0  0  0  0  0  0  0  0  0
   13.3380   -1.2046    0.0000 H   0  0  0  0  0  0  0  0  0  0  0  0
  1  2  1  0  0  0  0
  1  4  1  0  0  0  0
  2  3  1  0  0  0  0
  3 43  1  0  0  0  0
  4  5  2  0  0  0  0
  4  6  1  0  0  0  0
  6  7  1  0  0  0  0
  6 61  1  0  0  0  0
  7  8  1  1  0  0  0
  7  9  1  0  0  0  0
  9 10  2  0  0  0  0
  9 11  1  0  0  0  0
 11 12  1  0  0  0  0
 11 62  1  0  0  0  0
 12 13  1  6  0  0  0
 12 14  1  0  0  0  0
 14 15  2  0  0  0  0
 14 16  1  0  0  0  0
 16 17  1  0  0  0  0
 16 63  1  0  0  0  0
 17 18  1  0  0  0  0
 17 20  1  0  0  0  0
 17 60  1  6  0  0  0
 18 19  1  0  0  0  0
 19 57  1  0  0  0  0
 20 21  2  0  0  0  0
 20 22  1  0  0  0  0
 22 23  1  0  0  0  0
 22 64  1  0  0  0  0
 23 24  1  0  0  0  0
 24 25  2  0  0  0  0
 24 26  1  0  0  0  0
 26 27  1  0  0  0  0
 26 65  1  0  0  0  0
 27 28  1  1  0  0  0
 27 29  1  0  0  0  0
 29 30  2  0  0  0  0
 29 31  1  0  0  0  0
 31 32  1  0  0  0  0
 31 66  1  0  0  0  0
 32 33  1  0  0  0  0
 33 34  2  0  0  0  0
 33 35  1  0  0  0  0
 35 36  1  0  0  0  0
 35 67  1  0  0  0  0
 36 37  1  1  0  0  0
 36 38  1  0  0  0  0
 38 39  2  0  0  0  0
 38 40  1  0  0  0  0
 40 41  1  0  0  0  0
 40 68  1  0  0  0  0
 41 42  1  0  0  0  0
 41 44  1  0  0  0  0
 41 59  1  1  0  0  0
 42 43  1  0  0  0  0
 44 45  2  0  0  0  0
 44 46  1  0  0  0  0
 46 47  1  0  0  0  0
 46 69  1  0  0  0  0
 47 48  1  0  0  0  0
 47 58  1  0  0  0  0
 48 49  2  0  0  0  0
 48 50  1  0  0  0  0
 50 51  1  0  0  0  0
 50 70  1  0  0  0  0
 51 52  1  0  0  0  0
 52 53  2  0  0  0  0
 52 54  1  0  0  0  0
 54 55  1  0  0  0  0
 54 71  1  0  0  0  0
 55 56  1  0  0  0  0
 56 57  1  0  0  0  0
M  END
$$$$
C[C@H]1C[C@]2(OC2)C(=O)[C@H](C)[C@@H](O)[C@@H](C)[C@H](OC(=O)[C@@H]([C@H]([C@@H]([C@H]1O)C)O)C)C
 OpenBabel07182308452D

 27 28  0  0  0  0  0  0  0  0999 V2000
   -0.5844    3.5037    0.0000 C   0  0  2  0  0  0  0  0  0  0  0  0
   -0.5913    4.3441    0.0000 C   0  0  0  0  0  0  0  0  0  0  0  0
    0.1310    3.9205    0.0000 O   0  0  0  0  0  0  0  0  0  0  0  0
   -0.5844    2.6771    0.0000 C   0  0  0  0  0  0  0  0  0  0  0  0
   -1.2998    3.9205    0.0000 C   0  0  0  0  0  0  0  0  0  0  0  0
    0.1345    2.2707    0.0000 C   0  0  1  0  0  0  0  0  0  0  0  0
   -2.0118    3.5037    0.0000 C   0  0  1  0  0  0  0  0  0  0  0  0
   -1.2998    4.7401    0.0000 O   0  0  0  0  0  0  0  0  0  0  0  0
    0.1345    1.4441    0.0000 C   0  0  1  0  0  0  0  0  0  0  0  0
    0.8430    2.6806    0.0000 C   0  0  0  0  0  0  0  0  0  0  0  0
   -2.0118    2.6771    0.0000 C   0  0  2  0  0  0  0  0  0  0  0  0
   -2.7273    3.9205    0.0000 C   0  0  0  0  0  0  0  0  0  0  0  0
   -0.5844    1.0308    0.0000 C   0  0  2  0  0  0  0  0  0  0  0  0
    0.8395    1.0308    0.0000 O   0  0  0  0  0  0  0  0  0  0  0  0
   -2.7273    2.2707    0.0000 C   0  0  2  0  0  0  0  0  0  0  0  0
   -2.9646    3.1753    0.0000 O   0  0  0  0  0  0  0  0  0  0  0  0
   -0.5844    0.2077    0.0000 C   0  0  2  0  0  0  0  0  0  0  0  0
   -1.2998    1.4441    0.0000 C   0  0  0  0  0  0  0  0  0  0  0  0
   -2.7273    1.4441    0.0000 C   0  0  2  0  0  0  0  0  0  0  0  0
   -3.4392    2.6806    0.0000 C   0  0  0  0  0  0  0  0  0  0  0  0
    0.1345   -0.2021    0.0000 O   0  0  0  0  0  0  0  0  0  0  0  0
   -1.2998   -0.2021    0.0000 C   0  0  2  0  0  0  0  0  0  0  0  0
   -2.0118    1.0308    0.0000 O   0  0  0  0  0  0  0  0  0  0  0  0
   -3.4428    1.0273    0.0000 C   0  0  0  0  0  0  0  0  0  0  0  0
   -2.0118    0.2077    0.0000 C   0  0  0  0  0  0  0  0  0  0  0  0
   -1.2998   -1.0253    0.0000 C   0  0  0  0  0  0  0  0  0  0  0  0
   -2.7273   -0.2021    0.0000 O   0  0  0  0  0  0  0  0  0  0  0  0
  1  2  1  6  0  0  0
  1  3  1  0  0  0  0
  1  4  1  0  0  0  0
  1  5  1  0  0  0  0
  2  3  1  0  0  0  0
  4  6  1  0  0  0  0
  5  7  1  0  0  0  0
  5  8  2  0  0  0  0
  6  9  1  0  0  0  0
  6 10  1  6  0  0  0
  7 11  1  0  0  0  0
  7 12  1  1  0  0  0
  9 13  1  0  0  0  0
  9 14  1  6  0  0  0
 11 15  1  0  0  0  0
 11 16  1  1  0  0  0
 13 17  1  0  0  0  0
 13 18  1  6  0  0  0
 15 19  1  0  0  0  0
 15 20  1  6  0  0  0
 17 21  1  6  0  0  0
 17 22  1  0  0  0  0
 19 23  1  0  0  0  0
 19 24  1  6  0  0  0
 22 25  1  0  0  0  0
 22 26  1  1  0  0  0
 23 25  1  0  0  0  0
 25 27  2  0  0  0  0
M  END
$$$$
O[C@@H]1CCCO[C@H]1C
 OpenBabel07182308452D

  8  8  0  0  0  0  0  0  0  0999 V2000
    0.1329   -1.0253    0.0000 C   0  0  0  0  0  0  0  0  0  0  0  0
   -0.5864   -1.4393    0.0000 C   0  0  0  0  0  0  0  0  0  0  0  0
    0.8432   -1.4378    0.0000 O   0  0  0  0  0  0  0  0  0  0  0  0
   -0.5835   -2.2591    0.0000 C   0  0  0  0  0  0  0  0  0  0  0  0
    0.8432   -2.2594    0.0000 C   0  0  2  0  0  0  0  0  0  0  0  0
    0.1238   -2.6735    0.0000 C   0  0  2  0  0  0  0  0  0  0  0  0
    1.5536   -2.6720    0.0000 C   0  0  0  0  0  0  0  0  0  0  0  0
    0.1268   -3.4933    0.0000 O   0  0  0  0  0  0  0  0  0  0  0  0
  1  2  1  0  0  0  0
  1  3  1  0  0  0  0
  2  4  1  0  0  0  0
  3  5  1  0  0  0  0
  4  6  1  0  0  0  0
  5  7  1  1  0  0  0
  5  6  1  0  0  0  0
  6  8  1  6  0  0  0
M  END
$$$$
CC1COc2c(O1)cccc2
 OpenBabel07182308452D

 11 12  0  0  0  0  0  0  0  0999 V2000
   -0.7183   -1.2395    0.0000 O   0  0  0  0  0  0  0  0  0  0  0  0
   -0.0048   -0.8304    0.0000 C   0  0  0  0  0  0  0  0  0  0  0  0
   -0.0048   -0.0036    0.0000 C   0  0  3  0  0  0  0  0  0  0  0  0
   -0.7183    0.4138    0.0000 O   0  0  0  0  0  0  0  0  0  0  0  0
   -1.4320   -0.8304    0.0000 C   0  0  0  0  0  0  0  0  0  0  0  0
   -1.4294   -0.0054    0.0000 C   0  0  0  0  0  0  0  0  0  0  0  0
   -2.1413    0.4074    0.0000 C   0  0  0  0  0  0  0  0  0  0  0  0
   -2.8563   -0.0034    0.0000 C   0  0  0  0  0  0  0  0  0  0  0  0
   -2.8549   -0.8315    0.0000 C   0  0  0  0  0  0  0  0  0  0  0  0
   -2.1423   -1.2406    0.0000 C   0  0  0  0  0  0  0  0  0  0  0  0
    0.7122    0.4076    0.0000 C   0  0  0  0  0  0  0  0  0  0  0  0
  1  2  1  0  0  0  0
  2  3  1  0  0  0  0
  3  4  1  0  0  0  0
  3 11  1  0  0  0  0
  5  6  2  0  0  0  0
  5  1  1  0  0  0  0
  6  4  1  0  0  0  0
  6  7  1  0  0  0  0
  7  8  2  0  0  0  0
  8  9  1  0  0  0  0
  9 10  2  0  0  0  0
 10  5  1  0  0  0  0
M  END
$$$$
Brc1cc(C)c2c(c1O)nccc2
 OpenBabel07182308452D

 14 15  0  0  0  0  0  0  0  0999 V2000
    0.0000    0.8250    0.0000 C   0  0  0  0  0  0  0  0  0  0  0  0
    0.0000   -0.0000    0.0000 C   0  0  0  0  0  0  0  0  0  0  0  0
   -0.7145   -0.4125    0.0000 C   0  0  0  0  0  0  0  0  0  0  0  0
   -0.7145   -1.2375    0.0000 C   0  0  0  0  0  0  0  0  0  0  0  0
    0.0000   -1.6500    0.0000 C   0  0  0  0  0  0  0  0  0  0  0  0
    0.7145   -1.2375    0.0000 C   0  0  0  0  0  0  0  0  0  0  0  0
    0.7145   -0.4125    0.0000 C   0  0  0  0  0  0  0  0  0  0  0  0
    1.4289   -0.0000    0.0000 C   0  0  0  0  0  0  0  0  0  0  0  0
    2.1434   -0.4125    0.0000 C   0  0  0  0  0  0  0  0  0  0  0  0
    2.1434   -1.2375    0.0000 C   0  0  0  0  0  0  0  0  0  0  0  0
    1.4289   -1.6500    0.0000 N   0  0  0  0  0  0  0  0  0  0  0  0
    0.0000   -2.4750    0.0000 O   0  0  0  0  0  0  0  0  0  0  0  0
   -1.4289   -1.6500    0.0000 Br  0  0  0  0  0  0  0  0  0  0  0  0
   -0.8115   -2.9435    0.0000 H   0  0  0  0  0  0  0  0  0  0  0  0
  1  2  1  0  0  0  0
  2  3  1  0  0  0  0
  2  7  2  0  0  0  0
  3  4  2  0  0  0  0
  4  5  1  0  0  0  0
  4 13  1  0  0  0  0
  5  6  2  0  0  0  0
  5 12  1  0  0  0  0
  6  7  1  0  0  0  0
  6 11  1  0  0  0  0
  7  8  1  0  0  0  0
  8  9  2  0  0  0  0
  9 10  1  0  0  0  0
 10 11  2  0  0  0  0
 12 14  1  0  0  0  0
M  END
$$$$
O=c1[nH]c2ccccc2n(c2c1cccc2)C
 OpenBabel07182308452D

 17 19  0  0  0  0  0  0  0  0999 V2000
    3.8037    2.5203    0.0000 C   0  0  0  0  0  0  0  0  0  0  0  0
    6.1237    0.8510    0.0000 C   0  0  0  0  0  0  0  0  0  0  0  0
    5.9401    1.6553    0.0000 C   0  0  0  0  0  0  0  0  0  0  0  0
    1.6673    1.6553    0.0000 C   0  0  0  0  0  0  0  0  0  0  0  0
    1.4837    0.8510    0.0000 C   0  0  0  0  0  0  0  0  0  0  0  0
    5.5189    0.2898    0.0000 C   0  0  0  0  0  0  0  0  0  0  0  0
    5.1517    1.8985    0.0000 C   0  0  0  0  0  0  0  0  0  0  0  0
    2.4556    1.8985    0.0000 C   0  0  0  0  0  0  0  0  0  0  0  0
    2.0884    0.2898    0.0000 C   0  0  0  0  0  0  0  0  0  0  0  0
    4.7305    0.5330    0.0000 C   0  0  0  0  0  0  0  0  0  0  0  0
    4.5470    1.3373    0.0000 C   0  0  0  0  0  0  0  0  0  0  0  0
    3.0604    1.3373    0.0000 C   0  0  0  0  0  0  0  0  0  0  0  0
    2.8768    0.5330    0.0000 C   0  0  0  0  0  0  0  0  0  0  0  0
    4.2162   -0.1120    0.0000 C   0  0  0  0  0  0  0  0  0  0  0  0
    3.8037    1.6953    0.0000 N   0  0  0  0  0  0  0  0  0  0  0  0
    3.3912   -0.1120    0.0000 N   0  0  0  0  0  0  0  0  0  0  0  0
    4.5741   -0.8553    0.0000 O   0  0  0  0  0  0  0  0  0  0  0  0
  3  2  2  0  0  0  0
  5  4  2  0  0  0  0
  6  2  1  0  0  0  0
  7  3  1  0  0  0  0
  8  4  1  0  0  0  0
  9  5  1  0  0  0  0
 10  6  2  0  0  0  0
 11  7  2  0  0  0  0
 11 10  1  0  0  0  0
 12  8  2  0  0  0  0
 13  9  2  0  0  0  0
 13 12  1  0  0  0  0
 14 10  1  0  0  0  0
 15  1  1  0  0  0  0
 15 11  1  0  0  0  0
 15 12  1  0  0  0  0
 16 13  1  0  0  0  0
 16 14  1  0  0  0  0
 17 14  2  0  0  0  0
M  END
$$$$
Fc1ccc2c(c1)n(C)ccc2=O
 OpenBabel07182308452D

 13 14  0  0  0  0  0  0  0  0999 V2000
    2.8579    0.0000    0.0000 C   0  0  0  0  0  0  0  0  0  0  0  0
    0.7145    2.0625    0.0000 C   0  0  0  0  0  0  0  0  0  0  0  0
    1.4289    2.4750    0.0000 C   0  0  0  0  0  0  0  0  0  0  0  0
    1.4289    0.8250    0.0000 C   0  0  0  0  0  0  0  0  0  0  0  0
    3.5724    1.2375    0.0000 C   0  0  0  0  0  0  0  0  0  0  0  0
    0.7145    1.2375    0.0000 C   0  0  0  0  0  0  0  0  0  0  0  0
    2.1434    2.0625    0.0000 C   0  0  0  0  0  0  0  0  0  0  0  0
    2.1434    1.2375    0.0000 C   0  0  0  0  0  0  0  0  0  0  0  0
    3.5724    2.0625    0.0000 C   0  0  0  0  0  0  0  0  0  0  0  0
    2.8579    2.4750    0.0000 C   0  0  0  0  0  0  0  0  0  0  0  0
    0.0000    0.8250    0.0000 F   0  0  0  0  0  0  0  0  0  0  0  0
    2.8579    0.8250    0.0000 N   0  0  0  0  0  0  0  0  0  0  0  0
    2.8579    3.3000    0.0000 O   0  0  0  0  0  0  0  0  0  0  0  0
  3  2  2  0  0  0  0
  6  2  1  0  0  0  0
  6  4  2  0  0  0  0
  7  3  1  0  0  0  0
  8  4  1  0  0  0  0
  8  7  2  0  0  0  0
  9  5  2  0  0  0  0
 10  7  1  0  0  0  0
 10  9  1  0  0  0  0
 11  6  1  0  0  0  0
 12  1  1  0  0  0  0
 12  5  1  0  0  0  0
 12  8  1  0  0  0  0
 13 10  2  0  0  0  0
M  END
$$$$
B=O
 OpenBabel07182308452D

  2  1  0  0  0  0  0  0  0  0999 V2000
   -0.2062    0.3572    0.0000 B   0  0  0  0  0  0  0  0  0  0  0  0
   -1.0312    0.3572    0.0000 O   0  0  0  0  0  0  0  0  0  0  0  0
  2  1  2  0  0  0  0
M  END
$$$$
SC=S
 OpenBabel07182308452D

  3  2  0  0  0  0  0  0  0  0999 V2000
    1.2375    0.7145    0.0000 C   0  0  0  0  0  0  0  0  0  0  0  0
    1.2375   -0.1105    0.0000 S   0  0  0  0  0  0  0  0  0  0  0  0
    1.9520    1.1270    0.0000 S   0  0  0  0  0  0  0  0  0  0  0  0
  2  1  2  0  0  0  0
  3  1  1  0  0  0  0
M  END
$$$$
c1ccc2c(c1)Nc1ccccc1CC2
 OpenBabel07182308452D

 15 17  0  0  0  0  0  0  0  0999 V2000
    6.1696    1.7541    0.0000 C   0  0  0  0  0  0  0  0  0  0  0  0
    3.8496    5.7724    0.0000 C   0  0  0  0  0  0  0  0  0  0  0  0
    5.3812    1.5109    0.0000 C   0  0  0  0  0  0  0  0  0  0  0  0
    3.2448    5.2113    0.0000 C   0  0  0  0  0  0  0  0  0  0  0  0
    6.3531    2.5584    0.0000 C   0  0  0  0  0  0  0  0  0  0  0  0
    4.6379    5.5292    0.0000 C   0  0  0  0  0  0  0  0  0  0  0  0
    4.7764    2.0720    0.0000 C   0  0  0  0  0  0  0  0  0  0  0  0
    3.4284    4.4070    0.0000 C   0  0  0  0  0  0  0  0  0  0  0  0
    6.0498    3.8875    0.0000 C   0  0  0  0  0  0  0  0  0  0  0  0
    5.6373    4.6020    0.0000 C   0  0  0  0  0  0  0  0  0  0  0  0
    5.7484    3.1195    0.0000 C   0  0  0  0  0  0  0  0  0  0  0  0
    4.8215    4.7249    0.0000 C   0  0  0  0  0  0  0  0  0  0  0  0
    4.9600    2.8763    0.0000 C   0  0  0  0  0  0  0  0  0  0  0  0
    4.2167    4.1638    0.0000 C   0  0  0  0  0  0  0  0  0  0  0  0
    4.2784    3.3411    0.0000 N   0  0  0  0  0  0  0  0  0  0  0  0
  3  1  2  0  0  0  0
  4  2  2  0  0  0  0
  5  1  1  0  0  0  0
  6  2  1  0  0  0  0
  7  3  1  0  0  0  0
  8  4  1  0  0  0  0
 10  9  1  0  0  0  0
 11  5  2  0  0  0  0
 11  9  1  0  0  0  0
 12  6  2  0  0  0  0
 12 10  1  0  0  0  0
 13  7  2  0  0  0  0
 13 11  1  0  0  0  0
 14  8  2  0  0  0  0
 14 12  1  0  0  0  0
 15 13  1  0  0  0  0
 15 14  1  0  0  0  0
M  END
$$$$
Clc1ccc2c(c1)C=Nc1c(S2)cccc1
 OpenBabel07182308452D

 16 18  0  0  0  0  0  0  0  0999 V2000
    1.4837    0.8510    0.0000 C   0  0  0  0  0  0  0  0  0  0  0  0
    1.6673    1.6553    0.0000 C   0  0  0  0  0  0  0  0  0  0  0  0
    2.0884    0.2898    0.0000 C   0  0  0  0  0  0  0  0  0  0  0  0
    2.4556    1.8985    0.0000 C   0  0  0  0  0  0  0  0  0  0  0  0
    5.9401    1.6553    0.0000 C   0  0  0  0  0  0  0  0  0  0  0  0
    5.1517    1.8985    0.0000 C   0  0  0  0  0  0  0  0  0  0  0  0
    5.5189    0.2898    0.0000 C   0  0  0  0  0  0  0  0  0  0  0  0
    6.1237    0.8510    0.0000 C   0  0  0  0  0  0  0  0  0  0  0  0
    4.7305    0.5330    0.0000 C   0  0  0  0  0  0  0  0  0  0  0  0
    2.8768    0.5330    0.0000 C   0  0  0  0  0  0  0  0  0  0  0  0
    4.5470    1.3373    0.0000 C   0  0  0  0  0  0  0  0  0  0  0  0
    3.0604    1.3373    0.0000 C   0  0  0  0  0  0  0  0  0  0  0  0
    4.2162   -0.1120    0.0000 C   0  0  0  0  0  0  0  0  0  0  0  0
    6.9120    0.6078    0.0000 Cl  0  0  0  0  0  0  0  0  0  0  0  0
    3.3912   -0.1120    0.0000 N   0  0  0  0  0  0  0  0  0  0  0  0
    3.8037    1.6953    0.0000 S   0  0  0  0  0  0  0  0  0  0  0  0
  2  1  2  0  0  0  0
  3  1  1  0  0  0  0
  4  2  1  0  0  0  0
  6  5  2  0  0  0  0
  8  5  1  0  0  0  0
  8  7  2  0  0  0  0
  9  7  1  0  0  0  0
 10  3  2  0  0  0  0
 11  6  1  0  0  0  0
 11  9  2  0  0  0  0
 12  4  2  0  0  0  0
 12 10  1  0  0  0  0
 13  9  1  0  0  0  0
 14  8  1  0  0  0  0
 15 10  1  0  0  0  0
 15 13  2  0  0  0  0
 16 11  1  0  0  0  0
 16 12  1  0  0  0  0
M  END
$$$$
SC(S)S
 OpenBabel07182308452D

  4  3  0  0  0  0  0  0  0  0999 V2000
    3.9039    3.9039    0.0000 S   0  0  0  0  0  0  0  0  0  0  0  0
    3.9039    3.0789    0.0000 C   0  0  0  0  0  0  0  0  0  0  0  0
    3.1895    2.6664    0.0000 S   0  0  0  0  0  0  0  0  0  0  0  0
    4.6184    2.6664    0.0000 S   0  0  0  0  0  0  0  0  0  0  0  0
  1  2  1  0  0  0  0
  2  3  1  0  0  0  0
  2  4  1  0  0  0  0
M  END
$$$$
O[AsH](=O)O
 OpenBabel07182308452D

  6  5  0  0  0  0  0  0  0  0999 V2000
    0.7145   -1.2375    0.0000 As  0  0  0  0  0  0  0  0  0  0  0  0
    0.7145   -2.0625    0.0000 O   0  0  0  0  0  0  0  0  0  0  0  0
   -0.1105   -1.2375    0.0000 O   0  0  0  0  0  0  0  0  0  0  0  0
    1.5395   -1.2375    0.0000 O   0  0  0  0  0  0  0  0  0  0  0  0
   -0.1255   -2.5475    0.0000 H   0  0  0  0  0  0  0  0  0  0  0  0
   -0.5955   -0.3975    0.0000 H   0  0  0  0  0  0  0  0  0  0  0  0
  1  2  1  0  0  0  0
  1  3  1  0  0  0  0
  1  4  2  0  0  0  0
  2  5  1  0  0  0  0
  3  6  1  0  0  0  0
M  END
$$$$
N[C@H]1C[C@@H](N)[C@@H]([C@H](C1)O)O
 OpenBabel07182308452D

 15 15  0  0  0  0  0  0  0  0999 V2000
    1.0998    0.8250    0.0000 C   0  0  0  0  0  0  0  0  0  0  0  0
    0.3849    0.4124    0.0000 C   0  0  1  0  0  0  0  0  0  0  0  0
    0.3849   -0.4124    0.0000 C   0  0  2  0  0  0  0  0  0  0  0  0
    1.0723   -0.8249    0.0000 C   0  0  1  0  0  0  0  0  0  0  0  0
    1.7873   -0.4124    0.0000 C   0  0  0  0  0  0  0  0  0  0  0  0
    1.7873    0.4124    0.0000 C   0  0  2  0  0  0  0  0  0  0  0  0
   -0.3300   -0.8249    0.0000 O   0  0  0  0  0  0  0  0  0  0  0  0
    2.5023    0.8250    0.0000 N   0  0  0  0  0  0  0  0  0  0  0  0
    1.0723   -1.6499    0.0000 N   0  0  0  0  0  0  0  0  0  0  0  0
   -0.3300    0.8250    0.0000 O   0  0  0  0  0  0  0  0  0  0  0  0
    3.3855    0.3148    0.0000 H   0  0  0  0  0  0  0  0  0  0  0  0
    2.5025    1.8450    0.0000 H   0  0  0  0  0  0  0  0  0  0  0  0
    0.1890   -2.1599    0.0000 H   0  0  0  0  0  0  0  0  0  0  0  0
    1.9556   -2.1599    0.0000 H   0  0  0  0  0  0  0  0  0  0  0  0
   -0.3302    1.7950    0.0000 H   0  0  0  0  0  0  0  0  0  0  0  0
  1  2  1  0  0  0  0
  2 10  1  1  0  0  0
  2  3  1  0  0  0  0
  3  7  1  6  0  0  0
  3  4  1  0  0  0  0
  4  5  1  0  0  0  0
  4  9  1  1  0  0  0
  5  6  1  0  0  0  0
  6  1  1  0  0  0  0
  6  8  1  1  0  0  0
  8 11  1  0  0  0  0
  8 12  1  0  0  0  0
  9 13  1  0  0  0  0
  9 14  1  0  0  0  0
 10 15  1  0  0  0  0
M  END
$$$$
CC1CCCN1
 OpenBabel07182308452D

  6  6  0  0  0  0  0  0  0  0999 V2000
    1.6457    0.7449    0.0000 C   0  0  0  0  0  0  0  0  0  0  0  0
    2.3602    0.3324    0.0000 C   0  0  3  0  0  0  0  0  0  0  0  0
    3.1138    0.6680    0.0000 N   0  0  0  0  0  0  0  0  0  0  0  0
    2.4464   -0.4880    0.0000 C   0  0  0  0  0  0  0  0  0  0  0  0
    3.6659    0.0549    0.0000 C   0  0  0  0  0  0  0  0  0  0  0  0
    3.2534   -0.6595    0.0000 C   0  0  0  0  0  0  0  0  0  0  0  0
  1  2  1  0  0  0  0
  2  3  1  0  0  0  0
  2  4  1  0  0  0  0
  3  5  1  0  0  0  0
  4  6  1  0  0  0  0
  5  6  1  0  0  0  0
M  END
$$$$
C[C@@H]1CC[C@H](CO1)N
 OpenBabel07182308452D

 10 10  0  0  1  0  0  0  0  0999 V2000
    5.7158   -6.6000    0.0000 C   0  0  0  0  0  0  0  0  0  0  0  0
    5.7158   -7.4250    0.0000 C   0  0  1  0  0  0  0  0  0  0  0  0
    5.0013   -7.8375    0.0000 C   0  0  0  0  0  0  0  0  0  0  0  0
    4.2868   -7.4250    0.0000 C   0  0  0  0  0  0  0  0  0  0  0  0
    4.2868   -6.6000    0.0000 C   0  0  2  0  0  0  0  0  0  0  0  0
    5.0013   -6.1875    0.0000 O   0  0  0  0  0  0  0  0  0  0  0  0
    3.5724   -6.1875    0.0000 C   0  0  0  0  0  0  0  0  0  0  0  0
    6.4302   -7.8375    0.0000 N   0  0  0  0  0  0  0  0  0  0  0  0
    6.4302   -8.8575    0.0000 H   0  0  0  0  0  0  0  0  0  0  0  0
    7.3136   -7.3275    0.0000 H   0  0  0  0  0  0  0  0  0  0  0  0
  1  2  1  0  0  0  0
  1  6  1  0  0  0  0
  2  3  1  0  0  0  0
  2  8  1  6  0  0  0
  3  4  1  0  0  0  0
  4  5  1  0  0  0  0
  5  6  1  0  0  0  0
  5  7  1  1  0  0  0
  8  9  1  0  0  0  0
  8 10  1  0  0  0  0
M  END
$$$$
Oc1ccc2c(c1)oc(=O)cc2C
 OpenBabel07182308452D

 13 14  0  0  0  0  0  0  0  0999 V2000
   12.1460   -2.8875    0.0000 C   0  0  0  0  0  0  0  0  0  0  0  0
   10.0026   -1.6500    0.0000 C   0  0  0  0  0  0  0  0  0  0  0  0
   10.7171   -2.0625    0.0000 C   0  0  0  0  0  0  0  0  0  0  0  0
    9.2881   -2.8875    0.0000 C   0  0  0  0  0  0  0  0  0  0  0  0
   11.4315   -3.3000    0.0000 C   0  0  0  0  0  0  0  0  0  0  0  0
    9.2881   -2.0625    0.0000 C   0  0  0  0  0  0  0  0  0  0  0  0
   10.7171   -2.8875    0.0000 C   0  0  0  0  0  0  0  0  0  0  0  0
   11.4315   -4.1250    0.0000 C   0  0  0  0  0  0  0  0  0  0  0  0
   10.0026   -3.3000    0.0000 C   0  0  0  0  0  0  0  0  0  0  0  0
   10.7171   -4.5375    0.0000 C   0  0  0  0  0  0  0  0  0  0  0  0
   10.7171   -5.3625    0.0000 O   0  0  0  0  0  0  0  0  0  0  0  0
    8.5737   -1.6500    0.0000 O   0  0  0  0  0  0  0  0  0  0  0  0
   10.0026   -4.1250    0.0000 O   0  0  0  0  0  0  0  0  0  0  0  0
  3  2  2  0  0  0  0
  5  1  1  0  0  0  0
  6  2  1  0  0  0  0
  6  4  2  0  0  0  0
  7  3  1  0  0  0  0
  7  5  1  0  0  0  0
  8  5  2  0  0  0  0
  9  4  1  0  0  0  0
  9  7  2  0  0  0  0
 10  8  1  0  0  0  0
 11 10  2  0  0  0  0
 12  6  1  0  0  0  0
 13  9  1  0  0  0  0
 13 10  1  0  0  0  0
M  END
$$$$
Cc1ccc2c(c1)CCCS2(=O)=O
 OpenBabel07182308452D

 13 14  0  0  0  0  0  0  0  0999 V2000
    2.8579    0.8250    0.0000 C   0  0  0  0  0  0  0  0  0  0  0  0
   -0.7145    1.2375    0.0000 C   0  0  0  0  0  0  0  0  0  0  0  0
    0.0000    0.8250    0.0000 C   0  0  0  0  0  0  0  0  0  0  0  0
   -0.7145    2.0625    0.0000 C   0  0  0  0  0  0  0  0  0  0  0  0
    1.4289    0.8250    0.0000 C   0  0  0  0  0  0  0  0  0  0  0  0
    1.4289    2.4750    0.0000 C   0  0  0  0  0  0  0  0  0  0  0  0
    2.1434    1.2375    0.0000 C   0  0  0  0  0  0  0  0  0  0  0  0
    0.7145    1.2375    0.0000 C   0  0  0  0  0  0  0  0  0  0  0  0
    2.1434    2.0625    0.0000 C   0  0  0  0  0  0  0  0  0  0  0  0
    0.7145    2.0625    0.0000 C   0  0  0  0  0  0  0  0  0  0  0  0
   -0.3873    3.2034    0.0000 O   0  0  0  0  0  0  0  0  0  0  0  0
    0.3873    3.2034    0.0000 O   0  0  0  0  0  0  0  0  0  0  0  0
    0.0000    2.4750    0.0000 S   0  0  0  0  0  0  0  0  0  0  0  0
  3  2  1  0  0  0  0
  4  2  1  0  0  0  0
  7  1  1  0  0  0  0
  7  5  2  0  0  0  0
  8  3  1  0  0  0  0
  8  5  1  0  0  0  0
  9  6  2  0  0  0  0
  9  7  1  0  0  0  0
 10  6  1  0  0  0  0
 10  8  2  0  0  0  0
 13  4  1  0  0  0  0
 13 10  1  0  0  0  0
 13 11  2  0  0  0  0
 13 12  2  0  0  0  0
M  END
$$$$
CN1CCC(=C2c3ccccc3Sc3c2cccc3)CC1
 OpenBabel07182308452D

 21 24  0  0  0  0  0  0  0  0999 V2000
    3.8493   -2.4606    0.0000 S   0  0  0  0  0  0  0  0  0  0  0  0
    3.8493    1.6642    0.0000 N   0  0  0  0  0  0  0  0  0  0  0  0
    3.8493    0.0142    0.0000 C   0  0  0  0  0  0  0  0  0  0  0  0
    3.1348    0.4267    0.0000 C   0  0  0  0  0  0  0  0  0  0  0  0
    4.5638    0.4267    0.0000 C   0  0  0  0  0  0  0  0  0  0  0  0
    3.1348    1.2517    0.0000 C   0  0  0  0  0  0  0  0  0  0  0  0
    4.5638    1.2517    0.0000 C   0  0  0  0  0  0  0  0  0  0  0  0
    3.8493   -0.8107    0.0000 C   0  0  0  0  0  0  0  0  0  0  0  0
    4.5638   -1.2231    0.0000 C   0  0  0  0  0  0  0  0  0  0  0  0
    3.1348   -1.2231    0.0000 C   0  0  0  0  0  0  0  0  0  0  0  0
    3.8493    2.4891    0.0000 C   0  0  0  0  0  0  0  0  0  0  0  0
    4.5638   -2.0481    0.0000 C   0  0  0  0  0  0  0  0  0  0  0  0
    3.1348   -2.0481    0.0000 C   0  0  0  0  0  0  0  0  0  0  0  0
    5.3012   -0.7820    0.0000 C   0  0  0  0  0  0  0  0  0  0  0  0
    2.3974   -0.7820    0.0000 C   0  0  0  0  0  0  0  0  0  0  0  0
    5.3012   -2.4891    0.0000 C   0  0  0  0  0  0  0  0  0  0  0  0
    2.3974   -2.4891    0.0000 C   0  0  0  0  0  0  0  0  0  0  0  0
    1.6499   -1.2060    0.0000 C   0  0  0  0  0  0  0  0  0  0  0  0
    6.0487   -1.2060    0.0000 C   0  0  0  0  0  0  0  0  0  0  0  0
    6.0487   -2.0653    0.0000 C   0  0  0  0  0  0  0  0  0  0  0  0
    1.6499   -2.0653    0.0000 C   0  0  0  0  0  0  0  0  0  0  0  0
  1 12  1  0  0  0  0
  1 13  1  0  0  0  0
  2  6  1  0  0  0  0
  2  7  1  0  0  0  0
  2 11  1  0  0  0  0
  3  4  1  0  0  0  0
  3  5  1  0  0  0  0
  3  8  2  0  0  0  0
  4  6  1  0  0  0  0
  5  7  1  0  0  0  0
  8  9  1  0  0  0  0
  8 10  1  0  0  0  0
  9 12  1  0  0  0  0
  9 14  2  0  0  0  0
 10 13  1  0  0  0  0
 10 15  2  0  0  0  0
 12 16  2  0  0  0  0
 13 17  2  0  0  0  0
 14 19  1  0  0  0  0
 15 18  1  0  0  0  0
 16 20  1  0  0  0  0
 17 21  1  0  0  0  0
 18 21  2  0  0  0  0
 19 20  2  0  0  0  0
M  END
$$$$
Cc1ccc2c(n1)c(O)c(cc2Cl)Cl
 OpenBabel07182308452D

 15 16  0  0  0  0  0  0  0  0999 V2000
   -1.4289   -1.6500    0.0000 C   0  0  0  0  0  0  0  0  0  0  0  0
   -0.7145   -1.2375    0.0000 C   0  0  0  0  0  0  0  0  0  0  0  0
    0.0000   -1.6500    0.0000 N   0  0  0  0  0  0  0  0  0  0  0  0
    0.7145   -1.2375    0.0000 C   0  0  0  0  0  0  0  0  0  0  0  0
    0.7145   -0.4125    0.0000 C   0  0  0  0  0  0  0  0  0  0  0  0
    0.0000   -0.0000    0.0000 C   0  0  0  0  0  0  0  0  0  0  0  0
   -0.7145   -0.4125    0.0000 C   0  0  0  0  0  0  0  0  0  0  0  0
    1.4289   -0.0000    0.0000 C   0  0  0  0  0  0  0  0  0  0  0  0
    2.1434   -0.4125    0.0000 C   0  0  0  0  0  0  0  0  0  0  0  0
    2.1434   -1.2375    0.0000 C   0  0  0  0  0  0  0  0  0  0  0  0
    1.4289   -1.6500    0.0000 C   0  0  0  0  0  0  0  0  0  0  0  0
    1.4289   -2.4750    0.0000 O   0  0  0  0  0  0  0  0  0  0  0  0
    2.8579   -1.6500    0.0000 Cl  0  0  0  0  0  0  0  0  0  0  0  0
    1.4289    0.8250    0.0000 Cl  0  0  0  0  0  0  0  0  0  0  0  0
    0.6174   -2.9435    0.0000 H   0  0  0  0  0  0  0  0  0  0  0  0
  1  2  1  0  0  0  0
  2  3  2  0  0  0  0
  2  7  1  0  0  0  0
  3  4  1  0  0  0  0
  4  5  2  0  0  0  0
  4 11  1  0  0  0  0
  5  6  1  0  0  0  0
  5  8  1  0  0  0  0
  6  7  2  0  0  0  0
  8  9  2  0  0  0  0
  8 14  1  0  0  0  0
  9 10  1  0  0  0  0
 10 11  2  0  0  0  0
 10 13  1  0  0  0  0
 11 12  1  0  0  0  0
 12 15  1  0  0  0  0
M  END
$$$$
ClC=C(Cl)Cl
 OpenBabel07182308452D

  5  4  0  0  0  0  0  0  0  0999 V2000
    0.8250    0.0000    0.0000 C   0  0  0  0  0  0  0  0  0  0  0  0
    0.0000    0.0000    0.0000 C   0  0  0  0  0  0  0  0  0  0  0  0
    1.2375    0.7145    0.0000 Cl  0  0  0  0  0  0  0  0  0  0  0  0
   -0.4125   -0.7145    0.0000 Cl  0  0  0  0  0  0  0  0  0  0  0  0
   -0.4125    0.7145    0.0000 Cl  0  0  0  0  0  0  0  0  0  0  0  0
  2  1  2  0  0  0  0
  3  1  1  0  0  0  0
  4  2  1  0  0  0  0
  5  2  1  0  0  0  0
M  END
$$$$
O=C1C[NH+]2[Fe-2]34(O1)OC(=O)C[N+]4(CC2)CC(=O)O3
 OpenBabel07182308452D

 17 20  0  0  0  0  0  0  0  0999 V2000
   -1.4169    0.9518    0.0000 C   0  0  0  0  0  0  0  0  0  0  0  0
   -2.1313    0.5393    0.0000 C   0  0  0  0  0  0  0  0  0  0  0  0
   -2.1313   -0.2856    0.0000 O   0  0  0  0  0  0  0  0  0  0  0  0
   -2.8483    0.9418    0.0000 O   0  0  0  0  0  0  0  0  0  0  0  0
   -0.7024    0.3902    0.0000 N   0  3  3  0  0  0  0  0  0  0  0  0
   -0.4481    1.1751    0.0000 C   0  0  0  0  0  0  0  0  0  0  0  0
    0.6323    0.3914    0.0000 N   0  3  3  0  0  0  0  0  0  0  0  0
    0.3769    1.1758    0.0000 C   0  0  0  0  0  0  0  0  0  0  0  0
    0.6312   -0.9434    0.0000 O   0  0  0  0  0  0  0  0  0  0  0  0
    1.4160   -0.6891    0.0000 C   0  0  0  0  0  0  0  0  0  0  0  0
    1.4167    0.1359    0.0000 C   0  0  0  0  0  0  0  0  0  0  0  0
   -0.7013   -0.9446    0.0000 O   0  0  0  0  0  0  0  0  0  0  0  0
   -0.0678   -0.2767    0.0000 Fe  0  6  0  0  0  0  0  0  0  0  0  0
   -1.4861   -0.6903    0.0000 C   0  0  0  0  0  0  0  0  0  0  0  0
   -1.4867    0.1347    0.0000 C   0  0  0  0  0  0  0  0  0  0  0  0
   -2.1530   -1.1758    0.0000 O   0  0  0  0  0  0  0  0  0  0  0  0
    2.0830   -1.1746    0.0000 O   0  0  0  0  0  0  0  0  0  0  0  0
  2  1  1  0  0  0  0
  2  4  2  0  0  0  0
  3  2  1  0  0  0  0
  3 13  1  0  0  0  0
  5 13  1  0  0  0  0
  5  1  1  0  0  0  0
  6  5  1  0  0  0  0
  7 13  1  0  0  0  0
  8  6  1  0  0  0  0
  8  7  1  0  0  0  0
 10  9  1  0  0  0  0
 10 17  2  0  0  0  0
 11 10  1  0  0  0  0
 11  7  1  0  0  0  0
 13  9  1  0  0  0  0
 13 12  1  0  0  0  0
 14 12  1  0  0  0  0
 14 16  2  0  0  0  0
 15 14  1  0  0  0  0
 15  5  1  0  0  0  0
M  CHG  3   5   1   7   1  13  -2
M  END
$$$$
Oc1n[nH]c2c1cccc2
 OpenBabel07182308452D

 10 11  0  0  0  0  0  0  0  0999 V2000
    1.1387   -0.0305    0.0000 N   0  0  0  0  0  0  0  0  0  0  0  0
    1.9233   -0.2854    0.0000 C   0  0  0  0  0  0  0  0  0  0  0  0
    2.6378    0.1271    0.0000 C   0  0  0  0  0  0  0  0  0  0  0  0
    3.3523   -0.2854    0.0000 C   0  0  0  0  0  0  0  0  0  0  0  0
    3.3523   -1.1104    0.0000 C   0  0  0  0  0  0  0  0  0  0  0  0
    2.6378   -1.5229    0.0000 C   0  0  0  0  0  0  0  0  0  0  0  0
    1.9233   -1.1104    0.0000 C   0  0  0  0  0  0  0  0  0  0  0  0
    1.1387   -1.3654    0.0000 C   0  0  0  0  0  0  0  0  0  0  0  0
    0.6538   -0.6979    0.0000 N   0  0  0  0  0  0  0  0  0  0  0  0
    0.8838   -2.1500    0.0000 O   0  0  0  0  0  0  0  0  0  0  0  0
  1  2  1  0  0  0  0
  1  9  1  0  0  0  0
  2  3  2  0  0  0  0
  2  7  1  0  0  0  0
  3  4  1  0  0  0  0
  4  5  2  0  0  0  0
  5  6  1  0  0  0  0
  6  7  2  0  0  0  0
  7  8  1  0  0  0  0
  8  9  2  0  0  0  0
  8 10  1  0  0  0  0
M  END
$$$$
C[C@H]1CN(C)[C@H]2[C@H](C1)c1cccc3c1c(C2)cn3C
 OpenBabel07182308452D

 21 24  0  0  0  0  0  0  0  0999 V2000
    2.1952    0.3935    0.0000 C   0  0  2  0  0  0  0  0  0  0  0  0
    2.1953   -0.4314    0.0000 C   0  0  0  0  0  0  0  0  0  0  0  0
    2.9163    0.7944    0.0000 C   0  0  2  0  0  0  0  0  0  0  0  0
    1.4741    0.8176    0.0000 C   0  0  0  0  0  0  0  0  0  0  0  0
    2.9165   -0.8555    0.0000 C   0  0  0  0  0  0  0  0  0  0  0  0
    1.4743   -0.8323    0.0000 C   0  0  0  0  0  0  0  0  0  0  0  0
    2.9162    1.6194    0.0000 N   0  0  0  0  0  0  0  0  0  0  0  0
    3.6375    0.3703    0.0000 C   0  0  0  0  0  0  0  0  0  0  0  0
    1.5101    1.6214    0.0000 C   0  0  2  0  0  0  0  0  0  0  0  0
    3.6375   -0.4546    0.0000 C   0  0  0  0  0  0  0  0  0  0  0  0
    2.9165   -1.6806    0.0000 C   0  0  0  0  0  0  0  0  0  0  0  0
    1.4744   -1.6573    0.0000 C   0  0  0  0  0  0  0  0  0  0  0  0
    2.1951    2.0435    0.0000 C   0  0  0  0  0  0  0  0  0  0  0  0
    3.6372    2.0203    0.0000 C   0  0  0  0  0  0  0  0  0  0  0  0
    4.2283   -1.2582    0.0000 C   0  0  0  0  0  0  0  0  0  0  0  0
    3.6487   -1.9892    0.0000 N   0  0  0  0  0  0  0  0  0  0  0  0
    2.1956   -2.0814    0.0000 C   0  0  0  0  0  0  0  0  0  0  0  0
    1.4742   -0.0073    0.0000 H   0  0  0  0  0  0  0  0  0  0  0  0
    3.6373    1.1953    0.0000 H   0  0  0  0  0  0  0  0  0  0  0  0
    0.7887    2.0450    0.0000 C   0  0  0  0  0  0  0  0  0  0  0  0
    3.8116   -2.8931    0.0000 C   0  0  0  0  0  0  0  0  0  0  0  0
  1  2  1  0  0  0  0
  1  3  1  6  0  0  0
  1  4  1  0  0  0  0
  1 18  1  0  0  0  0
  2  5  2  0  0  0  0
  2  6  1  0  0  0  0
  3  7  1  0  0  0  0
  3  8  1  0  0  0  0
  3 19  1  1  0  0  0
  4  9  1  0  0  0  0
  5 10  1  0  0  0  0
  5 11  1  0  0  0  0
  6 12  2  0  0  0  0
  7 13  1  0  0  0  0
  7 14  1  0  0  0  0
  8 10  1  0  0  0  0
  9 13  1  0  0  0  0
  9 20  1  1  0  0  0
 10 15  2  0  0  0  0
 11 16  1  0  0  0  0
 11 17  2  0  0  0  0
 12 17  1  0  0  0  0
 15 16  1  0  0  0  0
 16 21  1  0  0  0  0
M  END
$$$$
CC1CCCC1
 OpenBabel07182308452D

  6  6  0  0  0  0  0  0  0  0999 V2000
    4.4656   -1.4045    0.0000 C   0  0  0  0  0  0  0  0  0  0  0  0
    4.8781   -0.6900    0.0000 C   0  0  0  0  0  0  0  0  0  0  0  0
    3.6586   -1.2330    0.0000 C   0  0  0  0  0  0  0  0  0  0  0  0
    4.3260   -0.0769    0.0000 C   0  0  0  0  0  0  0  0  0  0  0  0
    2.8579   -0.0000    0.0000 C   0  0  0  0  0  0  0  0  0  0  0  0
    3.5724   -0.4125    0.0000 C   0  0  0  0  0  0  0  0  0  0  0  0
  2  1  1  0  0  0  0
  3  1  1  0  0  0  0
  4  2  1  0  0  0  0
  6  3  1  0  0  0  0
  6  4  1  0  0  0  0
  6  5  1  0  0  0  0
M  END
$$$$
[O-][Si]([O-])([O-])[O-]
 OpenBabel07182308452D

  5  4  0  0  0  0  0  0  0  0999 V2000
    4.1250    0.8250    0.0000 O   0  5  0  0  0  0  0  0  0  0  0  0
    4.1250   -0.0000    0.0000 Si  0  0  0  0  0  0  0  0  0  0  0  0
    4.1250   -0.8250    0.0000 O   0  5  0  0  0  0  0  0  0  0  0  0
    3.3000    0.0000    0.0000 O   0  5  0  0  0  0  0  0  0  0  0  0
    4.9500   -0.0000    0.0000 O   0  5  0  0  0  0  0  0  0  0  0  0
  1  2  1  0  0  0  0
  2  3  1  0  0  0  0
  2  4  1  0  0  0  0
  2  5  1  0  0  0  0
M  CHG  4   1  -1   3  -1   4  -1   5  -1
M  END
$$$$
N/N=C/1\C=Cc2c(C1=O)cccc2
 OpenBabel07182308452D

 14 15  0  0  0  0  0  0  0  0999 V2000
   -2.8514   -0.0090    0.0000 C   0  0  0  0  0  0  0  0  0  0  0  0
   -2.8526   -0.8360    0.0000 C   0  0  0  0  0  0  0  0  0  0  0  0
   -2.1380   -1.2488    0.0000 C   0  0  0  0  0  0  0  0  0  0  0  0
   -2.1398    0.4036    0.0000 C   0  0  0  0  0  0  0  0  0  0  0  0
   -1.4246   -0.0053    0.0000 C   0  0  0  0  0  0  0  0  0  0  0  0
   -1.4238   -0.8319    0.0000 C   0  0  0  0  0  0  0  0  0  0  0  0
   -0.7087   -1.2428    0.0000 C   0  0  0  0  0  0  0  0  0  0  0  0
    0.0060   -0.8281    0.0000 C   0  0  0  0  0  0  0  0  0  0  0  0
    0.0012    0.0015    0.0000 C   0  0  0  0  0  0  0  0  0  0  0  0
   -0.7145    0.4086    0.0000 C   0  0  0  0  0  0  0  0  0  0  0  0
   -0.7187    1.2334    0.0000 O   0  0  0  0  0  0  0  0  0  0  0  0
    0.7130    0.4182    0.0000 N   0  0  0  0  0  0  0  0  0  0  0  0
    1.4237    0.0076    0.0000 N   0  0  0  0  0  0  0  0  0  0  0  0
    1.4263   -0.9769    0.0000 H   0  0  0  0  0  0  0  0  0  0  0  0
  1  2  2  0  0  0  0
  2  3  1  0  0  0  0
  3  6  2  0  0  0  0
  4  1  1  0  0  0  0
  5  4  2  0  0  0  0
  5  6  1  0  0  0  0
  6  7  1  0  0  0  0
  7  8  2  0  0  0  0
  8  9  1  0  0  0  0
  9 10  1  0  0  0  0
  9 12  2  0  0  0  0
 10  5  1  0  0  0  0
 10 11  2  0  0  0  0
 12 13  1  0  0  0  0
 13 14  1  0  0  0  0
M  END
$$$$
C[n+]1cccc2c1CCC2
 OpenBabel07182308452D

 10 11  0  0  0  0  0  0  0  0999 V2000
    2.9688   -0.8757    0.0000 N   0  3  0  0  0  0  0  0  0  0  0  0
    2.3531   -1.2386    0.0000 C   0  0  0  0  0  0  0  0  0  0  0  0
    3.7945   -1.2815    0.0000 C   0  0  0  0  0  0  0  0  0  0  0  0
    4.4867   -0.8757    0.0000 C   0  0  0  0  0  0  0  0  0  0  0  0
    2.9688   -0.0500    0.0000 C   0  0  0  0  0  0  0  0  0  0  0  0
    4.0380   -2.1120    0.0000 C   0  0  0  0  0  0  0  0  0  0  0  0
    3.7707    0.3270    0.0000 C   0  0  0  0  0  0  0  0  0  0  0  0
    4.9258   -2.1120    0.0000 C   0  0  0  0  0  0  0  0  0  0  0  0
    4.4867   -0.0500    0.0000 C   0  0  0  0  0  0  0  0  0  0  0  0
    5.1406   -1.2815    0.0000 C   0  0  0  0  0  0  0  0  0  0  0  0
  1  2  1  0  0  0  0
  3  1  2  0  0  0  0
  4  3  1  0  0  0  0
  4  9  2  0  0  0  0
  5  1  1  0  0  0  0
  6  3  1  0  0  0  0
  7  5  2  0  0  0  0
  8  6  1  0  0  0  0
  9  7  1  0  0  0  0
 10  4  1  0  0  0  0
 10  8  1  0  0  0  0
M  CHG  1   1   1
M  END
$$$$
O=C1OCc2c1c(N)c(O)c(c2O)O
 OpenBabel07182308452D

 16 17  0  0  1  0  0  0  0  0999 V2000
    6.4930    0.2116    0.0000 O   0  0  0  0  0  0  0  0  0  0  0  0
    3.8396   -0.5771    0.0000 O   0  0  0  0  0  0  0  0  0  0  0  0
    3.0030    0.5257    0.0000 O   0  0  0  0  0  0  0  0  0  0  0  0
    6.7456    1.6552    0.0000 O   0  0  0  0  0  0  0  0  0  0  0  0
    3.5338    2.0881    0.0000 O   0  0  0  0  0  0  0  0  0  0  0  0
    5.1521    2.4097    0.0000 N   0  0  0  0  0  0  0  0  0  0  0  0
    5.8236   -0.2621    0.0000 C   0  0  0  0  0  0  0  0  0  0  0  0
    5.1653    0.2269    0.0000 C   0  0  0  0  0  0  0  0  0  0  0  0
    5.4306    1.0081    0.0000 C   0  0  0  0  0  0  0  0  0  0  0  0
    4.3560    0.0661    0.0000 C   0  0  0  0  0  0  0  0  0  0  0  0
    6.2506    0.9951    0.0000 C   0  0  0  0  0  0  0  0  0  0  0  0
    4.8868    1.6285    0.0000 C   0  0  0  0  0  0  0  0  0  0  0  0
    3.8122    0.6865    0.0000 C   0  0  0  0  0  0  0  0  0  0  0  0
    4.0776    1.4677    0.0000 C   0  0  0  0  0  0  0  0  0  0  0  0
    6.1177    2.6016    0.0000 H   0  0  0  0  0  0  0  0  0  0  0  0
    4.5031    3.1500    0.0000 H   0  0  0  0  0  0  0  0  0  0  0  0
  1  7  1  0  0  0  0
  1 11  1  0  0  0  0
  2 10  1  0  0  0  0
  3 13  1  0  0  0  0
  4 11  2  0  0  0  0
  5 14  1  0  0  0  0
  6 12  1  0  0  0  0
  6 15  1  0  0  0  0
  6 16  1  0  0  0  0
  7  8  1  0  0  0  0
  8  9  2  0  0  0  0
  8 10  1  0  0  0  0
  9 11  1  0  0  0  0
  9 12  1  0  0  0  0
 10 13  2  0  0  0  0
 12 14  2  0  0  0  0
 13 14  1  0  0  0  0
M  END
$$$$
C=C1CC[N+](CC1)(C)C
 OpenBabel07182308452D

  9  9  0  0  0  0  0  0  0  0999 V2000
   -1.2448   -0.6055    0.0000 C   0  0  0  0  0  0  0  0  0  0  0  0
   -0.7145   -1.2375    0.0000 N   0  3  0  0  0  0  0  0  0  0  0  0
    0.0000   -1.6500    0.0000 C   0  0  0  0  0  0  0  0  0  0  0  0
    0.0000   -2.4750    0.0000 C   0  0  0  0  0  0  0  0  0  0  0  0
   -0.7145   -2.8875    0.0000 C   0  0  0  0  0  0  0  0  0  0  0  0
   -0.7145   -3.7125    0.0000 C   0  0  0  0  0  0  0  0  0  0  0  0
   -1.4289   -2.4750    0.0000 C   0  0  0  0  0  0  0  0  0  0  0  0
   -1.4289   -1.6500    0.0000 C   0  0  0  0  0  0  0  0  0  0  0  0
   -0.1842   -0.6055    0.0000 C   0  0  0  0  0  0  0  0  0  0  0  0
  1  2  1  0  0  0  0
  2  3  1  0  0  0  0
  2  8  1  0  0  0  0
  2  9  1  0  0  0  0
  3  4  1  0  0  0  0
  4  5  1  0  0  0  0
  5  6  2  0  0  0  0
  5  7  1  0  0  0  0
  7  8  1  0  0  0  0
M  CHG  1   2   1
M  END
$$$$
[O-]S(=O)(=O)[S-]
 OpenBabel07182308452D

  5  4  0  0  0  0  0  0  0  0999 V2000
    0.8250   -2.4750    0.0000 O   0  5  0  0  0  0  0  0  0  0  0  0
   -0.0000   -2.4750    0.0000 S   0  0  0  0  0  0  0  0  0  0  0  0
   -0.0000   -1.6500    0.0000 O   0  0  0  0  0  0  0  0  0  0  0  0
   -0.0000   -3.3000    0.0000 O   0  0  0  0  0  0  0  0  0  0  0  0
   -0.8250   -2.4750    0.0000 S   0  5  0  0  0  0  0  0  0  0  0  0
  1  2  1  0  0  0  0
  2  3  2  0  0  0  0
  2  4  2  0  0  0  0
  2  5  1  0  0  0  0
M  CHG  2   1  -1   5  -1
M  END
$$$$
[Au+]
 OpenBabel07182308452D

  1  0  0  0  0  0  0  0  0  0999 V2000
    4.0071   -2.4750    0.0000 Au  0  3  0  0  0 15  0  0  0  0  0  0
M  CHG  1   1   1
M  END
$$$$
O=C1C=C(C(C1)O)C
 OpenBabel07182308452D

  8  8  0  0  0  0  0  0  0  0999 V2000
    1.7653    1.1867    0.0000 C   0  0  0  0  0  0  0  0  0  0  0  0
    0.9263   -0.7762    0.0000 C   0  0  0  0  0  0  0  0  0  0  0  0
    1.5937    0.3797    0.0000 C   0  0  0  0  0  0  0  0  0  0  0  0
    2.1458   -0.2333    0.0000 C   0  0  0  0  0  0  0  0  0  0  0  0
    1.7333   -0.9478    0.0000 C   0  0  0  0  0  0  0  0  0  0  0  0
    0.8401    0.0442    0.0000 C   0  0  3  0  0  0  0  0  0  0  0  0
    2.0688   -1.7014    0.0000 O   0  0  0  0  0  0  0  0  0  0  0  0
    0.1256    0.4567    0.0000 O   0  0  0  0  0  0  0  0  0  0  0  0
  3  1  1  0  0  0  0
  4  3  2  0  0  0  0
  5  2  1  0  0  0  0
  5  4  1  0  0  0  0
  6  2  1  0  0  0  0
  6  3  1  0  0  0  0
  7  5  2  0  0  0  0
  8  6  1  0  0  0  0
M  END
$$$$
C[C@@H]1CC[C@]2([C@@H](C1)C1=CC(=O)[C@H]3[C@@]([C@@]1(CC2)C)(C)CC[C@@H]1[C@]3(C)CC[C@@H](C1(C)C)O)C
 OpenBabel07182308452D

 34 38  0  0  0  0  0  0  0  0999 V2000
   -0.6392    0.3073    0.0000 C   0  0  0  0  0  0  0  0  0  0  0  0
   -1.3538   -0.1049    0.0000 C   0  0  0  0  0  0  0  0  0  0  0  0
   -1.3538   -0.9294    0.0000 C   0  0  1  0  0  0  0  0  0  0  0  0
   -0.6392   -1.3417    0.0000 C   0  0  0  0  0  0  0  0  0  0  0  0
    0.0753   -0.9294    0.0000 C   0  0  2  0  0  0  0  0  0  0  0  0
    0.8357   -1.3417    0.0000 C   0  0  0  0  0  0  0  0  0  0  0  0
    1.5502   -0.9294    0.0000 C   0  0  0  0  0  0  0  0  0  0  0  0
    1.5502   -0.1049    0.0000 C   0  0  2  0  0  0  0  0  0  0  0  0
    0.8357    0.3073    0.0000 C   0  0  1  0  0  0  0  0  0  0  0  0
    0.0753   -0.1049    0.0000 C   0  0  1  0  0  0  0  0  0  0  0  0
    0.8357    1.1318    0.0000 C   0  0  0  0  0  0  0  0  0  0  0  0
    1.5502    1.5440    0.0000 C   0  0  0  0  0  0  0  0  0  0  0  0
    2.3106    1.1318    0.0000 C   0  0  0  0  0  0  0  0  0  0  0  0
    2.3106    0.3073    0.0000 C   0  0  1  0  0  0  0  0  0  0  0  0
    3.0252   -0.1049    0.0000 C   0  0  0  0  0  0  0  0  0  0  0  0
    3.7398    0.3073    0.0000 C   0  0  0  0  0  0  0  0  0  0  0  0
    3.7398    1.1318    0.0000 C   0  0  2  0  0  0  0  0  0  0  0  0
    3.0252    1.5440    0.0000 C   0  0  1  0  0  0  0  0  0  0  0  0
    3.0252    2.3685    0.0000 C   0  0  0  0  0  0  0  0  0  0  0  0
    3.7398    2.7807    0.0000 C   0  0  1  0  0  0  0  0  0  0  0  0
    4.5001    2.3685    0.0000 C   0  0  0  0  0  0  0  0  0  0  0  0
    4.5001    1.5440    0.0000 C   0  0  0  0  0  0  0  0  0  0  0  0
   -1.1614   -2.0288    0.0000 C   0  0  0  0  0  0  0  0  0  0  0  0
   -0.1811   -2.0196    0.0000 C   0  0  0  0  0  0  0  0  0  0  0  0
    0.0753    0.7195    0.0000 C   0  0  0  0  0  0  0  0  0  0  0  0
    1.5586    0.6737    0.0000 C   0  0  0  0  0  0  0  0  0  0  0  0
    2.3190   -0.5538    0.0000 C   0  0  0  0  0  0  0  0  0  0  0  0
    3.7489    1.9562    0.0000 C   0  0  0  0  0  0  0  0  0  0  0  0
    3.2542    3.4495    0.0000 C   0  0  0  0  0  0  0  0  0  0  0  0
    0.0753   -1.5982    0.0000 H   0  0  0  0  0  0  0  0  0  0  0  0
    0.8357   -0.3614    0.0000 H   0  0  0  0  0  0  0  0  0  0  0  0
    3.0252    0.8752    0.0000 H   0  0  0  0  0  0  0  0  0  0  0  0
    0.1248    1.5053    0.0000 O   0  0  0  0  0  0  0  0  0  0  0  0
   -2.0867   -1.3439    0.0000 O   0  0  0  0  0  0  0  0  0  0  0  0
  1 10  1  0  0  0  0
  2  1  1  0  0  0  0
  3  4  1  0  0  0  0
  3  2  1  0  0  0  0
  3 34  1  1  0  0  0
  4  5  1  0  0  0  0
  4 23  1  0  0  0  0
  4 24  1  0  0  0  0
  5 10  1  6  0  0  0
  5 30  1  0  0  0  0
  6  5  1  0  0  0  0
  7  8  1  0  0  0  0
  7  6  1  0  0  0  0
  8  9  1  6  0  0  0
  8 26  1  0  0  0  0
  9 10  1  1  0  0  0
  9 31  1  0  0  0  0
 10 25  1  1  0  0  0
 11  9  1  0  0  0  0
 12 11  1  0  0  0  0
 13 12  2  0  0  0  0
 13 14  1  0  0  0  0
 14  8  1  1  0  0  0
 14 27  1  0  0  0  0
 15 14  1  0  0  0  0
 16 15  1  0  0  0  0
 17 16  1  0  0  0  0
 17 18  1  6  0  0  0
 17 28  1  0  0  0  0
 18 13  1  0  0  0  0
 18 32  1  1  0  0  0
 19 18  1  0  0  0  0
 20 19  1  0  0  0  0
 20 29  1  6  0  0  0
 21 20  1  0  0  0  0
 21 22  1  0  0  0  0
 22 17  1  0  0  0  0
 33 11  2  0  0  0  0
M  END
$$$$
O=C1NN=C(C1)N
 OpenBabel07182308452D

  9  9  0  0  0  0  0  0  0  0999 V2000
    0.7221    0.0434    0.0000 N   0  0  0  0  0  0  0  0  0  0  0  0
    0.8163   -0.7761    0.0000 C   0  0  0  0  0  0  0  0  0  0  0  0
    1.4726    0.3862    0.0000 N   0  0  0  0  0  0  0  0  0  0  0  0
    1.6248   -0.9398    0.0000 C   0  0  0  0  0  0  0  0  0  0  0  0
    0.1693   -1.2879    0.0000 O   0  0  0  0  0  0  0  0  0  0  0  0
    2.0305   -0.2214    0.0000 C   0  0  0  0  0  0  0  0  0  0  0  0
    2.8502   -0.1273    0.0000 N   0  0  0  0  0  0  0  0  0  0  0  0
    3.4365   -0.9182    0.0000 H   0  0  0  0  0  0  0  0  0  0  0  0
    3.2420    0.7759    0.0000 H   0  0  0  0  0  0  0  0  0  0  0  0
  1  2  1  0  0  0  0
  1  3  1  0  0  0  0
  2  4  1  0  0  0  0
  2  5  2  0  0  0  0
  3  6  2  0  0  0  0
  4  6  1  0  0  0  0
  6  7  1  0  0  0  0
  7  8  1  0  0  0  0
  7  9  1  0  0  0  0
M  END
$$$$
IC(I)I
 OpenBabel07182308452D

  5  4  0  0  0  0  0  0  0  0999 V2000
    0.8250    0.0000    0.0000 I   0  0  0  0  0  0  0  0  0  0  0  0
    0.0000   -0.8250    0.0000 I   0  0  0  0  0  0  0  0  0  0  0  0
    0.0000    0.0000    0.0000 C   0  0  0  0  0  0  0  0  0  0  0  0
    0.0000    0.8250    0.0000 H   0  0  0  0  0  0  0  0  0  0  0  0
   -0.8250    0.0000    0.0000 I   0  0  0  0  0  0  0  0  0  0  0  0
  1  3  1  0  0  0  0
  3  4  1  0  0  0  0
  3  2  1  0  0  0  0
  5  3  1  0  0  0  0
M  END
$$$$
[18F]c1cc(O)c(cc1C)O
 OpenBabel07182308452D

 12 12  0  0  1  0  0  0  0  0999 V2000
    1.4289    0.8250    0.0000 C   0  0  0  0  0  0  0  0  0  0  0  0
    1.4289   -0.0000    0.0000 C   0  0  0  0  0  0  0  0  0  0  0  0
    0.7145   -0.4125    0.0000 C   0  0  0  0  0  0  0  0  0  0  0  0
    0.0000   -0.0000    0.0000 C   0  0  0  0  0  0  0  0  0  0  0  0
    0.0000    0.8250    0.0000 C   0  0  0  0  0  0  0  0  0  0  0  0
    0.7145    1.2375    0.0000 C   0  0  0  0  0  0  0  0  0  0  0  0
    0.7145    2.0625    0.0000 O   0  0  0  0  0  0  0  0  0  0  0  0
   -0.7145    1.2375    0.0000 O   0  0  0  0  0  0  0  0  0  0  0  0
    0.7145   -1.2375    0.0000 F   0  0  0  0  0  0  0  0  0  0  0  0
    2.1434   -0.4125    0.0000 C   0  0  0  0  0  0  0  0  0  0  0  0
    1.5260    2.5310    0.0000 H   0  0  0  0  0  0  0  0  0  0  0  0
   -0.7145    2.1745    0.0000 H   0  0  0  0  0  0  0  0  0  0  0  0
  1  2  2  0  0  0  0
  1  6  1  0  0  0  0
  2  3  1  0  0  0  0
  2 10  1  0  0  0  0
  3  4  2  0  0  0  0
  3  9  1  0  0  0  0
  4  5  1  0  0  0  0
  5  6  2  0  0  0  0
  5  8  1  0  0  0  0
  6  7  1  0  0  0  0
  7 11  1  0  0  0  0
  8 12  1  0  0  0  0
M  ISO  1   9  18
M  END
$$$$
O[C@H]1O[C@@H]2O[C@@]3(C)CC[C@@H]4[C@]2([C@H]([C@H]1C)CC[C@H]4C)OO3
 OpenBabel07182308452D

 23 26  0  0  0  0  0  0  0  0999 V2000
    0.0972    2.2544    0.0000 C   0  0  0  0  0  0  0  0  0  0  0  0
   -0.6460    1.8964    0.0000 C   0  0  0  0  0  0  0  0  0  0  0  0
   -0.8295    1.0922    0.0000 C   0  0  2  0  0  0  0  0  0  0  0  0
   -0.3152    0.4471    0.0000 C   0  0  2  0  0  0  0  0  0  0  0  0
    0.5098    0.4471    0.0000 C   0  0  1  0  0  0  0  0  0  0  0  0
    1.0241    1.0922    0.0000 O   0  0  0  0  0  0  0  0  0  0  0  0
    0.8405    1.8964    0.0000 C   0  0  1  0  0  0  0  0  0  0  0  0
   -1.6454    0.9692    0.0000 C   0  0  1  0  0  0  0  0  0  0  0  0
   -1.9468    0.2013    0.0000 C   0  0  0  0  0  0  0  0  0  0  0  0
   -1.4325   -0.4438    0.0000 C   0  0  0  0  0  0  0  0  0  0  0  0
   -0.7277   -0.2673    0.0000 C   0  0  1  0  0  0  0  0  0  0  0  0
   -0.3152   -0.9818    0.0000 C   0  0  2  0  0  0  0  0  0  0  0  0
    0.5098   -0.9818    0.0000 C   0  0  2  0  0  0  0  0  0  0  0  0
    0.9222   -0.2673    0.0000 O   0  0  0  0  0  0  0  0  0  0  0  0
   -1.4129    1.6754    0.0000 H   0  0  0  0  0  0  0  0  0  0  0  0
   -2.1596    1.6143    0.0000 C   0  0  0  0  0  0  0  0  0  0  0  0
    1.4856    2.4108    0.0000 C   0  0  0  0  0  0  0  0  0  0  0  0
   -0.3152    1.2721    0.0000 O   0  0  0  0  0  0  0  0  0  0  0  0
    0.0436    1.6829    0.0000 O   0  0  0  0  0  0  0  0  0  0  0  0
    0.9222   -1.6962    0.0000 O   0  0  0  0  0  0  0  0  0  0  0  0
   -0.7277   -1.6962    0.0000 C   0  0  0  0  0  0  0  0  0  0  0  0
   -1.1401   -0.9818    0.0000 H   0  0  0  0  0  0  0  0  0  0  0  0
    0.0972   -0.2673    0.0000 H   0  0  0  0  0  0  0  0  0  0  0  0
  1  2  1  0  0  0  0
  2  3  1  0  0  0  0
  3  4  1  1  0  0  0
  3 15  1  0  0  0  0
  4 11  1  1  0  0  0
  4 18  1  0  0  0  0
  5  6  1  0  0  0  0
  5  4  1  1  0  0  0
  5 23  1  0  0  0  0
  6  7  1  0  0  0  0
  7  1  1  0  0  0  0
  7 17  1  1  0  0  0
  7 19  1  0  0  0  0
  8  3  1  1  0  0  0
  8  9  1  0  0  0  0
  8 16  1  0  0  0  0
  9 10  1  0  0  0  0
 10 11  1  0  0  0  0
 11 22  1  1  0  0  0
 12 11  1  6  0  0  0
 12 13  1  0  0  0  0
 12 21  1  0  0  0  0
 13 14  1  0  0  0  0
 13 20  1  6  0  0  0
 14  5  1  0  0  0  0
 19 18  1  0  0  0  0
M  END
$$$$
S=c1ccss1
 OpenBabel07182308452D

  6  6  0  0  0  0  0  0  0  0999 V2000
   -0.6548    1.8053    0.0000 C   0  0  0  0  0  0  0  0  0  0  0  0
   -1.3222    2.2902    0.0000 C   0  0  0  0  0  0  0  0  0  0  0  0
   -0.9097    1.0206    0.0000 C   0  0  0  0  0  0  0  0  0  0  0  0
   -0.4248    0.3532    0.0000 S   0  0  0  0  0  0  0  0  0  0  0  0
   -1.9897    1.8053    0.0000 S   0  0  0  0  0  0  0  0  0  0  0  0
   -1.7347    1.0206    0.0000 S   0  0  0  0  0  0  0  0  0  0  0  0
  2  1  2  0  0  0  0
  3  1  1  0  0  0  0
  4  3  2  0  0  0  0
  5  2  1  0  0  0  0
  6  3  1  0  0  0  0
  6  5  1  0  0  0  0
M  END
$$$$
c1ccc2c(c1)scn2
 OpenBabel07182308452D

  9 10  0  0  0  0  0  0  0  0999 V2000
   -0.3829   -1.4289    0.0000 C   0  0  0  0  0  0  0  0  0  0  0  0
    0.0296   -2.1434    0.0000 C   0  0  0  0  0  0  0  0  0  0  0  0
    0.8546   -0.7145    0.0000 C   0  0  0  0  0  0  0  0  0  0  0  0
    0.0296   -0.7145    0.0000 C   0  0  0  0  0  0  0  0  0  0  0  0
    0.8546   -2.1434    0.0000 C   0  0  0  0  0  0  0  0  0  0  0  0
    1.2671   -1.4289    0.0000 C   0  0  0  0  0  0  0  0  0  0  0  0
    2.1603   -2.4209    0.0000 C   0  0  0  0  0  0  0  0  0  0  0  0
    1.4066   -2.7565    0.0000 N   0  0  0  0  0  0  0  0  0  0  0  0
    2.0741   -1.6005    0.0000 S   0  0  0  0  0  0  0  0  0  0  0  0
  2  1  2  0  0  0  0
  4  1  1  0  0  0  0
  4  3  2  0  0  0  0
  5  2  1  0  0  0  0
  6  3  1  0  0  0  0
  6  5  2  0  0  0  0
  8  5  1  0  0  0  0
  8  7  2  0  0  0  0
  9  6  1  0  0  0  0
  9  7  1  0  0  0  0
M  END
$$$$
Fc1ccc2c(c1)[nH]cn2
 OpenBabel07182308452D

 11 12  0  0  0  0  0  0  0  0999 V2000
   -1.4519   -3.5254    0.0000 C   0  0  0  0  0  0  0  0  0  0  0  0
   -1.8645   -2.8110    0.0000 C   0  0  0  0  0  0  0  0  0  0  0  0
   -2.6896   -2.8110    0.0000 C   0  0  0  0  0  0  0  0  0  0  0  0
   -3.1020   -3.5254    0.0000 C   0  0  0  0  0  0  0  0  0  0  0  0
   -2.6896   -4.2399    0.0000 C   0  0  0  0  0  0  0  0  0  0  0  0
   -1.8645   -4.2399    0.0000 C   0  0  0  0  0  0  0  0  0  0  0  0
   -3.9090   -3.3540    0.0000 N   0  0  0  0  0  0  0  0  0  0  0  0
   -3.9953   -2.5334    0.0000 C   0  0  0  0  0  0  0  0  0  0  0  0
   -3.2415   -2.1979    0.0000 N   0  0  0  0  0  0  0  0  0  0  0  0
   -1.4520   -4.9544    0.0000 F   0  0  0  0  0  0  0  0  0  0  0  0
   -4.6406   -4.0128    0.0000 H   0  0  0  0  0  0  0  0  0  0  0  0
  1  2  2  0  0  0  0
  2  3  1  0  0  0  0
  3  4  2  0  0  0  0
  3  9  1  0  0  0  0
  4  5  1  0  0  0  0
  4  7  1  0  0  0  0
  5  6  2  0  0  0  0
  6  1  1  0  0  0  0
  6 10  1  0  0  0  0
  7  8  1  0  0  0  0
  7 11  1  0  0  0  0
  8  9  2  0  0  0  0
M  END
$$$$
O=C1NCC(=O)N2CC[C@H](C2)Oc2nc3ccccc3nc2C(/C=C/CO[C@H]2[C@H](O1)CCC2)(F)F
 OpenBabel07182308452D

 41 45  0  0  0  0  0  0  0  0999 V2000
    0.3546    0.2357    0.0000 C   0  0  1  0  0  0  0  0  0  0  0  0
    1.1237   -0.0619    0.0000 C   0  0  0  0  0  0  0  0  0  0  0  0
    1.0782   -0.8855    0.0000 N   0  0  0  0  0  0  0  0  0  0  0  0
    0.2808   -1.0967    0.0000 C   0  0  0  0  0  0  0  0  0  0  0  0
   -0.1663   -0.4037    0.0000 C   0  0  0  0  0  0  0  0  0  0  0  0
    3.9256    2.2775    0.0000 C   0  0  2  0  0  0  0  0  0  0  0  0
    4.6848    2.6100    0.0000 C   0  0  0  0  0  0  0  0  0  0  0  0
    5.2357    1.9909    0.0000 C   0  0  0  0  0  0  0  0  0  0  0  0
    4.8171    1.2754    0.0000 C   0  0  0  0  0  0  0  0  0  0  0  0
    4.0073    1.4526    0.0000 C   0  0  1  0  0  0  0  0  0  0  0  0
    3.2136    2.6940    0.0000 O   0  0  0  0  0  0  0  0  0  0  0  0
    3.3911    0.9042    0.0000 O   0  0  0  0  0  0  0  0  0  0  0  0
    3.8112    3.0975    0.0000 H   0  0  0  0  0  0  0  0  0  0  0  0
    4.1367    0.6395    0.0000 H   0  0  0  0  0  0  0  0  0  0  0  0
    2.4967    2.2859    0.0000 C   0  0  0  0  0  0  0  0  0  0  0  0
    1.7846    2.7026    0.0000 C   0  0  0  0  0  0  0  0  0  0  0  0
    1.0677    2.2944    0.0000 C   0  0  0  0  0  0  0  0  0  0  0  0
    0.3558    2.7110    0.0000 C   0  0  0  0  0  0  0  0  0  0  0  0
   -0.3610    2.3026    0.0000 C   0  0  0  0  0  0  0  0  0  0  0  0
    0.7473    3.4372    0.0000 F   0  0  0  0  0  0  0  0  0  0  0  0
   -0.0272    3.4417    0.0000 F   0  0  0  0  0  0  0  0  0  0  0  0
   -0.3614    1.4746    0.0000 C   0  0  0  0  0  0  0  0  0  0  0  0
   -1.0742    1.0663    0.0000 N   0  0  0  0  0  0  0  0  0  0  0  0
   -1.0685    2.7183    0.0000 N   0  0  0  0  0  0  0  0  0  0  0  0
   -1.7858    2.3056    0.0000 C   0  0  0  0  0  0  0  0  0  0  0  0
   -1.7858    1.4761    0.0000 C   0  0  0  0  0  0  0  0  0  0  0  0
   -2.5002    1.0635    0.0000 C   0  0  0  0  0  0  0  0  0  0  0  0
   -3.2192    1.4760    0.0000 C   0  0  0  0  0  0  0  0  0  0  0  0
   -3.2192    2.3056    0.0000 C   0  0  0  0  0  0  0  0  0  0  0  0
   -2.5003    2.7226    0.0000 C   0  0  0  0  0  0  0  0  0  0  0  0
    0.3521    1.0606    0.0000 O   0  0  0  0  0  0  0  0  0  0  0  0
   -0.3093    0.7329    0.0000 H   0  0  0  0  0  0  0  0  0  0  0  0
    0.4103   -1.9106    0.0000 H   0  0  0  0  0  0  0  0  0  0  0  0
    1.7178   -1.4066    0.0000 C   0  0  0  0  0  0  0  0  0  0  0  0
    2.4889   -1.1130    0.0000 C   0  0  0  0  0  0  0  0  0  0  0  0
    1.5865   -2.2211    0.0000 O   0  0  0  0  0  0  0  0  0  0  0  0
    2.6203   -0.2986    0.0000 N   0  0  0  0  0  0  0  0  0  0  0  0
    3.3913   -0.0052    0.0000 C   0  0  0  0  0  0  0  0  0  0  0  0
    4.0707   -0.4733    0.0000 O   0  0  0  0  0  0  0  0  0  0  0  0
    3.3478   -0.9639    0.0000 H   0  0  0  0  0  0  0  0  0  0  0  0
    1.8570    0.3232    0.0000 H   0  0  0  0  0  0  0  0  0  0  0  0
  1  2  1  0  0  0  0
  1 31  1  0  0  0  0
  1 32  1  6  0  0  0
  2  3  1  0  0  0  0
  3  4  1  0  0  0  0
  3 34  1  0  0  0  0
  4  5  1  0  0  0  0
  4 33  1  0  0  0  0
  5  1  1  0  0  0  0
  6  7  1  0  0  0  0
  6 10  1  1  0  0  0
  6 11  1  0  0  0  0
  6 13  1  0  0  0  0
  7  8  1  0  0  0  0
  8  9  1  0  0  0  0
  9 10  1  0  0  0  0
 10 12  1  0  0  0  0
 10 14  1  6  0  0  0
 11 15  1  0  0  0  0
 12 38  1  0  0  0  0
 15 16  1  0  0  0  0
 16 17  2  0  0  0  0
 17 18  1  0  0  0  0
 18 19  1  0  0  0  0
 18 20  1  0  0  0  0
 18 21  1  0  0  0  0
 19 22  1  0  0  0  0
 19 24  2  0  0  0  0
 22 23  2  0  0  0  0
 22 31  1  0  0  0  0
 23 26  1  0  0  0  0
 25 24  1  0  0  0  0
 25 26  2  0  0  0  0
 25 30  1  0  0  0  0
 26 27  1  0  0  0  0
 27 28  2  0  0  0  0
 28 29  1  0  0  0  0
 29 30  2  0  0  0  0
 34 35  1  0  0  0  0
 34 36  2  0  0  0  0
 35 37  1  0  0  0  0
 35 40  1  0  0  0  0
 37 38  1  0  0  0  0
 37 41  1  0  0  0  0
 38 39  2  0  0  0  0
M  END
$$$$
O[Bi]1Oc2c(O1)cccc2O
 OpenBabel07182308452D

 13 14  0  0  0  0  0  0  0  0999 V2000
    0.3327    0.8250    0.0000 C   0  0  0  0  0  0  0  0  0  0  0  0
    1.0472    0.4125    0.0000 C   0  0  0  0  0  0  0  0  0  0  0  0
    0.3327   -0.8250    0.0000 C   0  0  0  0  0  0  0  0  0  0  0  0
   -0.3817   -0.4125    0.0000 C   0  0  0  0  0  0  0  0  0  0  0  0
   -0.3817    0.4125    0.0000 C   0  0  0  0  0  0  0  0  0  0  0  0
    1.0472   -0.4125    0.0000 C   0  0  0  0  0  0  0  0  0  0  0  0
   -1.1662   -0.6674    0.0000 O   0  0  0  0  0  0  0  0  0  0  0  0
   -1.1662    0.6674    0.0000 O   0  0  0  0  0  0  0  0  0  0  0  0
   -1.6512    0.0000    0.0000 Bi  0  0  3  0  0  0  0  0  0  0  0  0
   -2.4762    0.0000    0.0000 O   0  0  0  0  0  0  0  0  0  0  0  0
    0.3327   -1.6500    0.0000 O   0  0  0  0  0  0  0  0  0  0  0  0
   -2.9612    0.8400    0.0000 H   0  0  0  0  0  0  0  0  0  0  0  0
   -0.4788   -2.1185    0.0000 H   0  0  0  0  0  0  0  0  0  0  0  0
  1  5  2  0  0  0  0
  2  1  1  0  0  0  0
  3 11  1  0  0  0  0
  3  4  2  0  0  0  0
  4  7  1  0  0  0  0
  4  5  1  0  0  0  0
  5  8  1  0  0  0  0
  6  2  2  0  0  0  0
  6  3  1  0  0  0  0
  7  9  1  0  0  0  0
  8  9  1  0  0  0  0
  9 10  1  0  0  0  0
 10 12  1  0  0  0  0
 11 13  1  0  0  0  0
M  END
$$$$
Brc1cc2cc3cc(Br)c(=O)c(c3oc2c(c1[O-])Br)Br
 OpenBabel07182308452D

 20 22  0  0  0  0  0  0  0  0999 V2000
   -1.4374    2.0331    0.0000 C   0  0  0  0  0  0  0  0  0  0  0  0
   -2.1519    1.6206    0.0000 C   0  0  0  0  0  0  0  0  0  0  0  0
   -2.1519    0.7955    0.0000 C   0  0  0  0  0  0  0  0  0  0  0  0
   -1.4374    0.3830    0.0000 C   0  0  0  0  0  0  0  0  0  0  0  0
   -0.7229    0.7955    0.0000 C   0  0  0  0  0  0  0  0  0  0  0  0
   -0.7229    1.6206    0.0000 C   0  0  0  0  0  0  0  0  0  0  0  0
   -0.0083    2.0331    0.0000 O   0  0  0  0  0  0  0  0  0  0  0  0
   -0.0083    0.3830    0.0000 C   0  0  0  0  0  0  0  0  0  0  0  0
    0.7060    0.7955    0.0000 C   0  0  0  0  0  0  0  0  0  0  0  0
    0.7060    1.6206    0.0000 C   0  0  0  0  0  0  0  0  0  0  0  0
    1.4205    2.0331    0.0000 C   0  0  0  0  0  0  0  0  0  0  0  0
    1.4205    0.3830    0.0000 C   0  0  0  0  0  0  0  0  0  0  0  0
    2.1350    0.7955    0.0000 C   0  0  0  0  0  0  0  0  0  0  0  0
    2.1350    1.6206    0.0000 C   0  0  0  0  0  0  0  0  0  0  0  0
    2.8495    2.0331    0.0000 O   0  0  0  0  0  0  0  0  0  0  0  0
   -2.8664    2.0331    0.0000 O   0  5  0  0  0  0  0  0  0  0  0  0
    1.4205    2.8581    0.0000 Br  0  0  0  0  0  0  0  0  0  0  0  0
    2.8495    0.3830    0.0000 Br  0  0  0  0  0  0  0  0  0  0  0  0
   -1.4374    2.8581    0.0000 Br  0  0  0  0  0  0  0  0  0  0  0  0
   -2.8664    0.3830    0.0000 Br  0  0  0  0  0  0  0  0  0  0  0  0
  1  2  2  0  0  0  0
  1  6  1  0  0  0  0
  1 19  1  0  0  0  0
  2  3  1  0  0  0  0
  2 16  1  0  0  0  0
  3  4  2  0  0  0  0
  3 20  1  0  0  0  0
  4  5  1  0  0  0  0
  5  8  1  0  0  0  0
  6  5  2  0  0  0  0
  7  6  1  0  0  0  0
  7 10  1  0  0  0  0
  8  9  2  0  0  0  0
  9 12  1  0  0  0  0
 10  9  1  0  0  0  0
 11 10  2  0  0  0  0
 11 14  1  0  0  0  0
 11 17  1  0  0  0  0
 12 13  2  0  0  0  0
 13 14  1  0  0  0  0
 13 18  1  0  0  0  0
 14 15  2  0  0  0  0
M  CHG  1  16  -1
M  END
$$$$
O=C1CCSSCCNC(=O)CNC(=O)[C@@H](NC(=O)[C@H](NC(=O)CN1)C)C
 OpenBabel07182308452D

 32 32  0  0  0  0  0  0  0  0999 V2000
    2.1853    1.9289    0.0000 C   0  0  0  0  0  0  0  0  0  0  0  0
    1.6124    1.2744    0.0000 C   0  0  0  0  0  0  0  0  0  0  0  0
    0.7553    1.4532    0.0000 S   0  0  0  0  0  0  0  0  0  0  0  0
    0.1768    0.7924    0.0000 S   0  0  0  0  0  0  0  0  0  0  0  0
   -2.0459    2.7438    0.0000 C   0  0  0  0  0  0  0  0  0  0  0  0
   -2.8816    2.9248    0.0000 O   0  0  0  0  0  0  0  0  0  0  0  0
   -1.4727    3.3837    0.0000 N   0  0  0  0  0  0  0  0  0  0  0  0
   -1.7424    4.1997    0.0000 C   0  0  2  0  0  0  0  0  0  0  0  0
   -2.5489    4.3712    0.0000 C   0  0  0  0  0  0  0  0  0  0  0  0
   -1.1642    4.8352    0.0000 C   0  0  0  0  0  0  0  0  0  0  0  0
   -1.4230    5.6185    0.0000 O   0  0  0  0  0  0  0  0  0  0  0  0
   -0.3195    4.6681    0.0000 N   0  0  0  0  0  0  0  0  0  0  0  0
    0.2489    5.3080    0.0000 C   0  0  1  0  0  0  0  0  0  0  0  0
   -0.0163    6.0891    0.0000 C   0  0  0  0  0  0  0  0  0  0  0  0
    1.0831    5.1476    0.0000 C   0  0  0  0  0  0  0  0  0  0  0  0
    1.6230    5.7715    0.0000 O   0  0  0  0  0  0  0  0  0  0  0  0
    1.3640    4.3370    0.0000 N   0  0  0  0  0  0  0  0  0  0  0  0
    2.2077    4.1658    0.0000 C   0  0  0  0  0  0  0  0  0  0  0  0
    2.4815    3.3551    0.0000 C   0  0  0  0  0  0  0  0  0  0  0  0
    3.2866    3.1757    0.0000 O   0  0  0  0  0  0  0  0  0  0  0  0
    1.9074    2.7562    0.0000 N   0  0  0  0  0  0  0  0  0  0  0  0
   -2.3715    1.3155    0.0000 N   0  0  0  0  0  0  0  0  0  0  0  0
   -2.6511   -0.1126    0.0000 O   0  0  0  0  0  0  0  0  0  0  0  0
   -2.1003    0.5011    0.0000 C   0  0  0  0  0  0  0  0  0  0  0  0
   -1.7995    1.9568    0.0000 C   0  0  0  0  0  0  0  0  0  0  0  0
   -0.6734    0.9652    0.0000 C   0  0  0  0  0  0  0  0  0  0  0  0
   -1.2423    0.3155    0.0000 C   0  0  0  0  0  0  0  0  0  0  0  0
   -0.5089    3.1827    0.0000 H   0  0  0  0  0  0  0  0  0  0  0  0
   -0.0055    3.7350    0.0000 H   0  0  0  0  0  0  0  0  0  0  0  0
    0.7158    3.5960    0.0000 H   0  0  0  0  0  0  0  0  0  0  0  0
    0.9466    2.9711    0.0000 H   0  0  0  0  0  0  0  0  0  0  0  0
   -3.3357    1.5144    0.0000 H   0  0  0  0  0  0  0  0  0  0  0  0
  1  2  1  0  0  0  0
  1 21  1  0  0  0  0
  2  3  1  0  0  0  0
  3  4  1  0  0  0  0
  4 26  1  0  0  0  0
  5  6  2  0  0  0  0
  5  7  1  0  0  0  0
  5 25  1  0  0  0  0
  7  8  1  0  0  0  0
  7 28  1  0  0  0  0
  8  9  1  6  0  0  0
  8 10  1  0  0  0  0
 10 11  2  0  0  0  0
 10 12  1  0  0  0  0
 12 13  1  0  0  0  0
 12 29  1  0  0  0  0
 13 14  1  1  0  0  0
 13 15  1  0  0  0  0
 15 16  2  0  0  0  0
 15 17  1  0  0  0  0
 17 18  1  0  0  0  0
 17 30  1  0  0  0  0
 18 19  1  0  0  0  0
 19 20  2  0  0  0  0
 19 21  1  0  0  0  0
 21 31  1  0  0  0  0
 22 24  1  0  0  0  0
 22 32  1  0  0  0  0
 24 27  1  0  0  0  0
 24 23  2  0  0  0  0
 25 22  1  0  0  0  0
 27 26  1  0  0  0  0
M  END
$$$$
[68Ga+3]
 OpenBabel07182308452D

  1  0  0  0  0  0  0  0  0  0999 V2000
    0.7222   -5.0731    0.0000 Ga  0  1  0  0  0 15  0  0  0  0  0  0
M  ISO  1   1  68
M  CHG  1   1   3
M  END
$$$$
c1ccc2c(c1)cncc2
 OpenBabel07182308452D

 10 11  0  0  0  0  0  0  0  0999 V2000
    3.2108   -0.1332    0.0000 C   0  0  0  0  0  0  0  0  0  0  0  0
    3.2108    0.7028    0.0000 C   0  0  0  0  0  0  0  0  0  0  0  0
    3.9256    1.1026    0.0000 C   0  0  0  0  0  0  0  0  0  0  0  0
    4.6405    0.6906    0.0000 C   0  0  0  0  0  0  0  0  0  0  0  0
    4.6405   -0.1211    0.0000 C   0  0  0  0  0  0  0  0  0  0  0  0
    3.9256   -0.5451    0.0000 C   0  0  0  0  0  0  0  0  0  0  0  0
    5.3553   -0.5330    0.0000 C   0  0  0  0  0  0  0  0  0  0  0  0
    6.0581   -0.1211    0.0000 C   0  0  0  0  0  0  0  0  0  0  0  0
    6.0581    0.6906    0.0000 N   0  0  0  0  0  0  0  0  0  0  0  0
    5.3432    1.1026    0.0000 C   0  0  0  0  0  0  0  0  0  0  0  0
  1  2  2  0  0  0  0
  1  6  1  0  0  0  0
  2  3  1  0  0  0  0
  3  4  2  0  0  0  0
  4  5  1  0  0  0  0
  4 10  1  0  0  0  0
  5  6  2  0  0  0  0
  5  7  1  0  0  0  0
  7  8  2  0  0  0  0
  8  9  1  0  0  0  0
  9 10  2  0  0  0  0
M  END
$$$$
N/N=C\1/CC[C@]2(C(=C1)CC[C@@H]1[C@@H]2CC[C@]2([C@H]1CCC2)C)C
 OpenBabel07182308452D

 25 28  0  0  0  0  0  0  0  0999 V2000
    2.9889    0.4314    0.0000 C   0  0  0  0  0  0  0  0  0  0  0  0
    2.2782    0.0126    0.0000 C   0  0  2  0  0  0  0  0  0  0  0  0
    2.2782   -0.8249    0.0000 C   0  0  1  0  0  0  0  0  0  0  0  0
    3.7124   -0.8249    0.0000 C   0  0  0  0  0  0  0  0  0  0  0  0
    3.7124    0.0000    0.0000 C   0  0  0  0  0  0  0  0  0  0  0  0
    1.5547   -1.2438    0.0000 C   0  0  2  0  0  0  0  0  0  0  0  0
    1.5547   -2.0688    0.0000 C   0  0  0  0  0  0  0  0  0  0  0  0
    0.8313   -2.4877    0.0000 C   0  0  0  0  0  0  0  0  0  0  0  0
    0.1078   -2.0688    0.0000 C   0  0  0  0  0  0  0  0  0  0  0  0
    0.1078   -1.2438    0.0000 C   0  0  2  0  0  0  0  0  0  0  0  0
    0.8313   -0.8249    0.0000 C   0  0  1  0  0  0  0  0  0  0  0  0
    0.8313    0.0126    0.0000 C   0  0  0  0  0  0  0  0  0  0  0  0
    1.5420    0.4188    0.0000 C   0  0  0  0  0  0  0  0  0  0  0  0
    0.8313   -1.7768    0.0000 H   0  0  0  0  0  0  0  0  0  0  0  0
    0.1078   -0.4188    0.0000 C   0  0  0  0  0  0  0  0  0  0  0  0
   -0.6028   -0.8249    0.0000 C   0  0  0  0  0  0  0  0  0  0  0  0
   -1.3136   -1.2438    0.0000 C   0  0  0  0  0  0  0  0  0  0  0  0
   -1.3136   -2.0688    0.0000 C   0  0  0  0  0  0  0  0  0  0  0  0
   -2.0244   -2.4877    0.0000 N   0  0  0  0  0  0  0  0  0  0  0  0
   -2.0244   -3.3126    0.0000 N   0  0  0  0  0  0  0  0  0  0  0  0
   -0.6028   -2.4877    0.0000 C   0  0  0  0  0  0  0  0  0  0  0  0
    1.5547   -0.2792    0.0000 H   0  0  0  0  0  0  0  0  0  0  0  0
    2.2782   -1.7896    0.0000 H   0  0  0  0  0  0  0  0  0  0  0  0
    2.2021    0.9392    0.0000 C   0  0  0  0  0  0  0  0  0  0  0  0
   -1.5675   -3.5792    0.0000 H   0  0  0  0  0  0  0  0  0  0  0  0
  1  2  1  0  0  0  0
  1  5  1  0  0  0  0
  2  3  1  1  0  0  0
  2 13  1  0  0  0  0
  2 24  1  0  0  0  0
  3  4  1  0  0  0  0
  3  6  1  1  0  0  0
  3 23  1  0  0  0  0
  4  5  1  0  0  0  0
  6  7  1  0  0  0  0
  6 11  1  6  0  0  0
  6 22  1  0  0  0  0
  7  8  1  0  0  0  0
  8  9  1  0  0  0  0
  9 10  1  0  0  0  0
  9 21  2  0  0  0  0
 10 11  1  6  0  0  0
 10 15  1  0  0  0  0
 10 16  1  0  0  0  0
 11 12  1  0  0  0  0
 11 14  1  6  0  0  0
 12 13  1  0  0  0  0
 16 17  1  0  0  0  0
 17 18  1  0  0  0  0
 18 19  2  0  0  0  0
 18 21  1  0  0  0  0
 19 20  1  0  0  0  0
 20 25  1  0  0  0  0
M  END
$$$$
OCC=O
 OpenBabel07182308452D

  5  4  0  0  0  0  0  0  0  0999 V2000
   -2.7478   -3.7315    0.0000 C   0  0  0  0  0  0  0  0  0  0  0  0
   -3.4586   -3.3126    0.0000 O   0  0  0  0  0  0  0  0  0  0  0  0
   -2.7478   -4.5438    0.0000 C   0  0  0  0  0  0  0  0  0  0  0  0
   -2.7478   -5.3814    0.0000 O   0  0  0  0  0  0  0  0  0  0  0  0
   -3.5878   -5.8664    0.0000 H   0  0  0  0  0  0  0  0  0  0  0  0
  1  2  2  0  0  0  0
  1  3  1  0  0  0  0
  3  4  1  0  0  0  0
  4  5  1  0  0  0  0
M  END
$$$$
O[C@H]1CC[C@@H]2[C@]1(C)CC[C@H]1[C@H]2CCc2c1cccc2
 OpenBabel07182308452D

 23 26  0  0  0  0  0  0  0  0999 V2000
    2.2275    0.7222    0.0000 C   0  0  2  0  0  0  0  0  0  0  0  0
    2.2227   -0.1018    0.0000 C   0  0  2  0  0  0  0  0  0  0  0  0
    1.5003   -0.5138    0.0000 C   0  0  1  0  0  0  0  0  0  0  0  0
    0.7876   -0.0969    0.0000 C   0  0  1  0  0  0  0  0  0  0  0  0
    0.0750   -0.5138    0.0000 C   0  0  0  0  0  0  0  0  0  0  0  0
    0.0750   -1.3428    0.0000 C   0  0  0  0  0  0  0  0  0  0  0  0
    1.5100    1.1392    0.0000 C   0  0  0  0  0  0  0  0  0  0  0  0
    0.7876    0.7320    0.0000 C   0  0  0  0  0  0  0  0  0  0  0  0
    1.5051   -1.3428    0.0000 C   0  0  0  0  0  0  0  0  0  0  0  0
    3.0031   -0.3635    0.0000 C   0  0  0  0  0  0  0  0  0  0  0  0
   -0.6375   -0.1018    0.0000 C   0  0  0  0  0  0  0  0  0  0  0  0
    3.0128    0.9694    0.0000 C   0  0  2  0  0  0  0  0  0  0  0  0
   -0.6375   -1.7548    0.0000 C   0  0  0  0  0  0  0  0  0  0  0  0
    0.7876   -1.7548    0.0000 C   0  0  0  0  0  0  0  0  0  0  0  0
   -1.3501   -1.3428    0.0000 C   0  0  0  0  0  0  0  0  0  0  0  0
    3.4928    0.3005    0.0000 C   0  0  0  0  0  0  0  0  0  0  0  0
   -1.3501   -0.5138    0.0000 C   0  0  0  0  0  0  0  0  0  0  0  0
    2.2227    1.5512    0.0000 C   0  0  0  0  0  0  0  0  0  0  0  0
    3.2698    1.7548    0.0000 O   0  0  0  0  0  0  0  0  0  0  0  0
    1.4956    0.3151    0.0000 H   0  0  0  0  0  0  0  0  0  0  0  0
    2.2178   -0.9211    0.0000 H   0  0  0  0  0  0  0  0  0  0  0  0
    0.7829   -0.9211    0.0000 H   0  0  0  0  0  0  0  0  0  0  0  0
    4.2190    1.9545    0.0000 H   0  0  0  0  0  0  0  0  0  0  0  0
  1  2  1  1  0  0  0
  1 18  1  0  0  0  0
  2  3  1  1  0  0  0
  2 21  1  0  0  0  0
  3  4  1  6  0  0  0
  3 20  1  0  0  0  0
  4 22  1  6  0  0  0
  5  4  1  0  0  0  0
  6  5  1  0  0  0  0
  7  1  1  0  0  0  0
  8  7  1  0  0  0  0
  8  4  1  0  0  0  0
  9  3  1  0  0  0  0
 10  2  1  0  0  0  0
 11  5  2  0  0  0  0
 12  1  1  1  0  0  0
 12 19  1  0  0  0  0
 13  6  2  0  0  0  0
 14  9  1  0  0  0  0
 14  6  1  0  0  0  0
 15 13  1  0  0  0  0
 15 17  2  0  0  0  0
 16 12  1  0  0  0  0
 16 10  1  0  0  0  0
 17 11  1  0  0  0  0
 19 23  1  0  0  0  0
M  END
$$$$
[V]
 OpenBabel07182308452D

  1  0  0  0  0  0  0  0  0  0999 V2000
    0.0000    0.0000    0.0000 V   0  0  0  0  0 15  0  0  0  0  0  0
M  END
$$$$
[64Cu]
 OpenBabel07182308452D

  1  0  0  0  0  0  0  0  0  0999 V2000
    0.0000    0.0000    0.0000 Cu  0  0  0  0  0 15  0  0  0  0  0  0
M  ISO  1   1  64
M  END
$$$$
[177Lu]
 OpenBabel07182308452D

  1  0  0  0  0  0  0  0  0  0999 V2000
    0.0000    0.0000    0.0000 Lu  0  0  0  0  0 15  0  0  0  0  0  0
M  ISO  1   1 177
M  END
$$$$
[177Lu+3]
 OpenBabel07182308452D

  1  0  0  0  0  0  0  0  0  0999 V2000
    0.7878   -5.1569    0.0000 Lu  0  1  0  0  0 15  0  0  0  0  0  0
M  ISO  1   1 177
M  CHG  1   1   3
M  END
$$$$
O=C1N2CCOC[C@H]2Nn2c1c(O)c(=O)cc2
 OpenBabel07182308452D

 18 20  0  0  0  0  0  0  0  0999 V2000
   -0.9316   -0.3519    0.0000 N   0  0  0  0  0  0  0  0  0  0  0  0
   -0.2277    0.0621    0.0000 N   0  0  0  0  0  0  0  0  0  0  0  0
   -0.2277    0.8902    0.0000 C   0  0  0  0  0  0  0  0  0  0  0  0
   -0.9316    1.3043    0.0000 C   0  0  0  0  0  0  0  0  0  0  0  0
   -1.6356    0.8902    0.0000 N   0  0  0  0  0  0  0  0  0  0  0  0
   -1.6356    0.0621    0.0000 C   0  0  1  0  0  0  0  0  0  0  0  0
    0.5175   -0.3519    0.0000 C   0  0  0  0  0  0  0  0  0  0  0  0
    1.2215    0.0621    0.0000 C   0  0  0  0  0  0  0  0  0  0  0  0
    1.2215    0.8902    0.0000 C   0  0  0  0  0  0  0  0  0  0  0  0
    0.5175    1.3043    0.0000 C   0  0  0  0  0  0  0  0  0  0  0  0
   -2.3395    1.3043    0.0000 C   0  0  0  0  0  0  0  0  0  0  0  0
   -3.0848    0.8902    0.0000 C   0  0  0  0  0  0  0  0  0  0  0  0
   -3.0848    0.0621    0.0000 O   0  0  0  0  0  0  0  0  0  0  0  0
   -2.3395   -0.3519    0.0000 C   0  0  0  0  0  0  0  0  0  0  0  0
   -0.9316    2.1324    0.0000 O   0  0  0  0  0  0  0  0  0  0  0  0
    1.9254    1.3043    0.0000 O   0  0  0  0  0  0  0  0  0  0  0  0
    0.5175    2.1324    0.0000 O   0  0  0  0  0  0  0  0  0  0  0  0
   -1.6356   -0.7660    0.0000 H   0  0  0  0  0  0  0  0  0  0  0  0
  1  2  1  0  0  0  0
  1  6  1  0  0  0  0
  2  3  1  0  0  0  0
  2  7  1  0  0  0  0
  3  4  1  0  0  0  0
  3 10  2  0  0  0  0
  4  5  1  0  0  0  0
  4 15  2  0  0  0  0
  5  6  1  0  0  0  0
  5 11  1  0  0  0  0
  6 14  1  0  0  0  0
  6 18  1  1  0  0  0
  7  8  2  0  0  0  0
  8  9  1  0  0  0  0
  9 10  1  0  0  0  0
  9 16  2  0  0  0  0
 10 17  1  0  0  0  0
 11 12  1  0  0  0  0
 12 13  1  0  0  0  0
 13 14  1  0  0  0  0
M  END
$$$$
Fc1ccc2c(c1F)CSc1c(C2)cccc1
 OpenBabel07182308452D

 17 19  0  0  0  0  0  0  0  0999 V2000
   -1.3457   -3.0434    0.0000 C   0  0  0  0  0  0  0  0  0  0  0  0
   -1.8426   -2.3809    0.0000 C   0  0  0  0  0  0  0  0  0  0  0  0
   -1.6769   -1.5527    0.0000 C   0  0  0  0  0  0  0  0  0  0  0  0
   -0.9316   -1.2215    0.0000 C   0  0  0  0  0  0  0  0  0  0  0  0
   -0.5175   -3.0434    0.0000 S   0  0  0  0  0  0  0  0  0  0  0  0
   -0.1863   -1.5941    0.0000 C   0  0  0  0  0  0  0  0  0  0  0  0
    0.0207   -2.4222    0.0000 C   0  0  0  0  0  0  0  0  0  0  0  0
   -2.2566   -0.9730    0.0000 C   0  0  0  0  0  0  0  0  0  0  0  0
   -3.0434   -1.2215    0.0000 C   0  0  0  0  0  0  0  0  0  0  0  0
   -3.2504   -2.0082    0.0000 C   0  0  0  0  0  0  0  0  0  0  0  0
   -2.6707   -2.5880    0.0000 C   0  0  0  0  0  0  0  0  0  0  0  0
    0.8074   -2.6707    0.0000 C   0  0  0  0  0  0  0  0  0  0  0  0
    1.4286   -2.0910    0.0000 C   0  0  0  0  0  0  0  0  0  0  0  0
    1.2215   -1.3043    0.0000 C   0  0  0  0  0  0  0  0  0  0  0  0
    0.4348   -1.0559    0.0000 C   0  0  0  0  0  0  0  0  0  0  0  0
   -2.8777   -3.3747    0.0000 F   0  0  0  0  0  0  0  0  0  0  0  0
   -4.0372   -2.2153    0.0000 F   0  0  0  0  0  0  0  0  0  0  0  0
  1  5  1  0  0  0  0
  1  2  1  0  0  0  0
  2  3  1  0  0  0  0
  2 11  2  0  0  0  0
  3  4  1  0  0  0  0
  3  8  2  0  0  0  0
  4  6  1  0  0  0  0
  5  7  1  0  0  0  0
  6  7  1  0  0  0  0
  6 15  2  0  0  0  0
  7 12  2  0  0  0  0
  8  9  1  0  0  0  0
  9 10  2  0  0  0  0
 10 11  1  0  0  0  0
 10 17  1  0  0  0  0
 11 16  1  0  0  0  0
 12 13  1  0  0  0  0
 13 14  2  0  0  0  0
 14 15  1  0  0  0  0
M  END
$$$$
C[C@H]1CCc2c(O1)c(C)c(cc2C)C
 OpenBabel07182308452D

 14 15  0  0  1  0  0  0  0  0999 V2000
   18.9438   -3.1680    0.0000 C   0  0  0  0  0  0  0  0  0  0  0  0
   17.3189   -3.4545    0.0000 C   0  0  0  0  0  0  0  0  0  0  0  0
   19.4401   -5.9825    0.0000 C   0  0  0  0  0  0  0  0  0  0  0  0
   15.9421   -6.4123    0.0000 C   0  0  0  0  0  0  0  0  0  0  0  0
   17.8152   -6.2690    0.0000 C   0  0  0  0  0  0  0  0  0  0  0  0
   17.0027   -6.4123    0.0000 C   0  0  0  0  0  0  0  0  0  0  0  0
   18.6617   -3.9433    0.0000 C   0  0  0  0  0  0  0  0  0  0  0  0
   17.8492   -4.0865    0.0000 C   0  0  0  0  0  0  0  0  0  0  0  0
   18.9098   -5.3505    0.0000 C   0  0  0  0  0  0  0  0  0  0  0  0
   18.0973   -5.4938    0.0000 C   0  0  0  0  0  0  0  0  0  0  0  0
   19.1920   -4.5753    0.0000 C   0  0  0  0  0  0  0  0  0  0  0  0
   17.5670   -4.8618    0.0000 C   0  0  0  0  0  0  0  0  0  0  0  0
   16.4724   -5.7803    0.0000 C   0  0  1  0  0  0  0  0  0  0  0  0
   16.7546   -5.0050    0.0000 O   0  0  0  0  0  0  0  0  0  0  0  0
  6  5  1  0  0  0  0
  7  1  1  0  0  0  0
  8  2  1  0  0  0  0
  8  7  1  0  0  0  0
  9  3  1  0  0  0  0
 10  5  1  0  0  0  0
 10  9  2  0  0  0  0
 11  7  2  0  0  0  0
 11  9  1  0  0  0  0
 12  8  2  0  0  0  0
 12 10  1  0  0  0  0
 13  4  1  6  0  0  0
 13  6  1  0  0  0  0
 14 12  1  0  0  0  0
 14 13  1  0  0  0  0
M  END
$$$$
[O-]S(=O)O
 OpenBabel07182308452D

  5  4  0  0  0  0  0  0  0  0999 V2000
   -0.7145    0.6187    0.0000 O   0  0  0  0  0  0  0  0  0  0  0  0
   -0.7145   -0.2062    0.0000 S   0  0  3  0  0  0  0  0  0  0  0  0
    0.0000   -0.6187    0.0000 O   0  5  0  0  0  0  0  0  0  0  0  0
   -1.4290   -0.6187    0.0000 O   0  0  0  0  0  0  0  0  0  0  0  0
   -2.2690   -0.1337    0.0000 H   0  0  0  0  0  0  0  0  0  0  0  0
  2  1  2  0  0  0  0
  2  3  1  0  0  0  0
  2  4  1  0  0  0  0
  4  5  1  0  0  0  0
M  CHG  1   3  -1
M  END
$$$$
Brc1[nH]c2c(n1)n(C)c(=O)n(c2=O)C
 OpenBabel07182308452D

 15 16  0  0  0  0  0  0  0  0999 V2000
    0.1147   -0.4100    0.0000 C   0  0  0  0  0  0  0  0  0  0  0  0
    0.1147    0.4309    0.0000 C   0  0  0  0  0  0  0  0  0  0  0  0
   -0.6012   -0.8201    0.0000 N   0  0  0  0  0  0  0  0  0  0  0  0
   -1.3136    0.4100    0.0000 N   0  0  0  0  0  0  0  0  0  0  0  0
   -1.3136   -0.3823    0.0000 C   0  0  0  0  0  0  0  0  0  0  0  0
   -0.6012    0.8410    0.0000 C   0  0  0  0  0  0  0  0  0  0  0  0
    0.8793   -0.6637    0.0000 N   0  0  0  0  0  0  0  0  0  0  0  0
    0.8793    0.6916    0.0000 N   0  0  0  0  0  0  0  0  0  0  0  0
    1.3658   -0.0034    0.0000 C   0  0  0  0  0  0  0  0  0  0  0  0
   -2.0539   -0.7958    0.0000 O   0  0  0  0  0  0  0  0  0  0  0  0
   -0.6012    1.6612    0.0000 O   0  0  0  0  0  0  0  0  0  0  0  0
   -0.6012   -1.6612    0.0000 C   0  0  0  0  0  0  0  0  0  0  0  0
    2.0539   -0.0034    0.0000 Br  0  0  0  0  0  0  0  0  0  0  0  0
   -2.0539    0.8167    0.0000 C   0  0  0  0  0  0  0  0  0  0  0  0
    1.1850    1.6274    0.0000 H   0  0  0  0  0  0  0  0  0  0  0  0
  2  1  2  0  0  0  0
  3  1  1  0  0  0  0
  4  5  1  0  0  0  0
  5  3  1  0  0  0  0
  6  2  1  0  0  0  0
  6  4  1  0  0  0  0
  7  1  1  0  0  0  0
  8  2  1  0  0  0  0
  8  9  1  0  0  0  0
  8 15  1  0  0  0  0
  9  7  2  0  0  0  0
 10  5  2  0  0  0  0
 11  6  2  0  0  0  0
 12  3  1  0  0  0  0
 13  9  1  0  0  0  0
 14  4  1  0  0  0  0
M  END
$$$$
[Zr]
 OpenBabel07182308452D

  1  0  0  0  0  0  0  0  0  0999 V2000
   -0.2062   -2.3646    0.0000 Zr  0  0  0  0  0 15  0  0  0  0  0  0
M  END
$$$$
[O-][Si]1([O-])O[Si]([O-])([O-])O[Si](O1)([O-])[O-]
 OpenBabel07182308452D

 12 12  0  0  0  0  0  0  0  0999 V2000
    0.7145    1.6501    0.0000 Si  0  0  0  0  0  0  0  0  0  0  0  0
    0.0000    0.4125    0.0000 Si  0  0  0  0  0  0  0  0  0  0  0  0
   -0.7145    1.6501    0.0000 Si  0  0  0  0  0  0  0  0  0  0  0  0
    0.7145    0.8251    0.0000 O   0  0  0  0  0  0  0  0  0  0  0  0
    0.0000    2.0627    0.0000 O   0  0  0  0  0  0  0  0  0  0  0  0
   -0.7145    0.8251    0.0000 O   0  0  0  0  0  0  0  0  0  0  0  0
    1.1270    2.3646    0.0000 O   0  5  0  0  0  0  0  0  0  0  0  0
    1.5395    1.6501    0.0000 O   0  5  0  0  0  0  0  0  0  0  0  0
   -0.4125   -0.3019    0.0000 O   0  5  0  0  0  0  0  0  0  0  0  0
    0.4125   -0.3019    0.0000 O   0  5  0  0  0  0  0  0  0  0  0  0
   -1.1270    2.3646    0.0000 O   0  5  0  0  0  0  0  0  0  0  0  0
   -1.5395    1.6501    0.0000 O   0  5  0  0  0  0  0  0  0  0  0  0
  1  4  1  0  0  0  0
  1  5  1  0  0  0  0
  1  7  1  0  0  0  0
  1  8  1  0  0  0  0
  2  4  1  0  0  0  0
  2  6  1  0  0  0  0
  2  9  1  0  0  0  0
  2 10  1  0  0  0  0
  3  5  1  0  0  0  0
  3  6  1  0  0  0  0
  3 11  1  0  0  0  0
  3 12  1  0  0  0  0
M  CHG  6   7  -1   8  -1   9  -1  10  -1  11  -1  12  -1
M  END
$$$$
O=C1NC(C(=O)N1)N
 OpenBabel07182308452D

 10 10  0  0  0  0  0  0  0  0999 V2000
   -2.1434   -0.9239    0.0000 N   0  0  0  0  0  0  0  0  0  0  0  0
   -2.8579   -0.5114    0.0000 C   0  0  3  0  0  0  0  0  0  0  0  0
   -2.8579    0.3135    0.0000 N   0  0  0  0  0  0  0  0  0  0  0  0
   -3.6425   -0.7663    0.0000 C   0  0  0  0  0  0  0  0  0  0  0  0
   -3.6425    0.5684    0.0000 C   0  0  0  0  0  0  0  0  0  0  0  0
   -4.1274   -0.0989    0.0000 N   0  0  0  0  0  0  0  0  0  0  0  0
   -3.8974   -1.5510    0.0000 O   0  0  0  0  0  0  0  0  0  0  0  0
   -3.8974    1.3531    0.0000 O   0  0  0  0  0  0  0  0  0  0  0  0
   -2.1434   -1.9084    0.0000 H   0  0  0  0  0  0  0  0  0  0  0  0
   -5.1119   -0.0989    0.0000 H   0  0  0  0  0  0  0  0  0  0  0  0
  1  2  1  0  0  0  0
  1  9  1  0  0  0  0
  3  2  1  0  0  0  0
  4  2  1  0  0  0  0
  5  3  1  0  0  0  0
  6  4  1  0  0  0  0
  6  5  1  0  0  0  0
  6 10  1  0  0  0  0
  7  4  2  0  0  0  0
  8  5  2  0  0  0  0
M  END
$$$$
CC1CO1
 OpenBabel07182308452D

  4  4  0  0  0  0  0  0  0  0999 V2000
   -3.5686   -0.1443    0.0000 C   0  0  0  0  0  0  0  0  0  0  0  0
   -4.2864   -0.5510    0.0000 C   0  0  3  0  0  0  0  0  0  0  0  0
   -5.0950   -0.5569    0.0000 C   0  0  0  0  0  0  0  0  0  0  0  0
   -4.6411   -1.3820    0.0000 O   0  0  0  0  0  0  0  0  0  0  0  0
  1  2  1  0  0  0  0
  2  3  1  0  0  0  0
  2  4  1  0  0  0  0
  4  3  1  0  0  0  0
M  END
$$$$
O[C@@H]1COc2c(C1)c(O)cc(c2)O
 OpenBabel07182308452D

 16 17  0  0  0  0  0  0  0  0999 V2000
   -0.3604    0.2187    0.0000 O   0  0  0  0  0  0  0  0  0  0  0  0
   -1.0729   -0.2020    0.0000 C   0  0  0  0  0  0  0  0  0  0  0  0
   -1.0812   -1.0270    0.0000 C   0  0  0  0  0  0  0  0  0  0  0  0
    0.3562   -0.2020    0.0000 C   0  0  0  0  0  0  0  0  0  0  0  0
   -0.3604   -1.4437    0.0000 C   0  0  0  0  0  0  0  0  0  0  0  0
   -1.7936   -1.4437    0.0000 C   0  0  0  0  0  0  0  0  0  0  0  0
    0.3562   -1.0312    0.0000 C   0  0  2  0  0  0  0  0  0  0  0  0
   -1.7936    0.2104    0.0000 C   0  0  0  0  0  0  0  0  0  0  0  0
   -2.5062   -1.0312    0.0000 C   0  0  0  0  0  0  0  0  0  0  0  0
   -2.5062   -0.2020    0.0000 C   0  0  0  0  0  0  0  0  0  0  0  0
   -1.7853   -2.2687    0.0000 O   0  0  0  0  0  0  0  0  0  0  0  0
    1.0687   -1.4437    0.0000 O   0  0  0  0  0  0  0  0  0  0  0  0
   -3.2186    0.2062    0.0000 O   0  0  0  0  0  0  0  0  0  0  0  0
   -2.5920   -2.7453    0.0000 H   0  0  0  0  0  0  0  0  0  0  0  0
    1.0675   -2.4137    0.0000 H   0  0  0  0  0  0  0  0  0  0  0  0
   -3.2217    1.1432    0.0000 H   0  0  0  0  0  0  0  0  0  0  0  0
  2  1  1  0  0  0  0
  3  2  1  0  0  0  0
  3  5  1  0  0  0  0
  4  1  1  0  0  0  0
  5  7  1  0  0  0  0
  6  3  2  0  0  0  0
  7  4  1  0  0  0  0
  7 12  1  1  0  0  0
  8  2  2  0  0  0  0
  9 10  2  0  0  0  0
  9  6  1  0  0  0  0
 10  8  1  0  0  0  0
 11  6  1  0  0  0  0
 11 14  1  0  0  0  0
 12 15  1  0  0  0  0
 13 10  1  0  0  0  0
 13 16  1  0  0  0  0
M  END
$$$$
F[B-](F)(F)F
 OpenBabel07182308452D

  5  4  0  0  0  0  0  0  0  0999 V2000
   -1.4830   -2.0753    0.0000 B   0  5  0  0  0  0  0  0  0  0  0  0
   -1.4830   -2.9003    0.0000 F   0  0  0  0  0  0  0  0  0  0  0  0
   -1.4830   -1.2503    0.0000 F   0  0  0  0  0  0  0  0  0  0  0  0
   -0.6580   -2.0753    0.0000 F   0  0  0  0  0  0  0  0  0  0  0  0
   -2.3080   -2.0753    0.0000 F   0  0  0  0  0  0  0  0  0  0  0  0
  2  1  1  0  0  0  0
  3  1  1  0  0  0  0
  4  1  1  0  0  0  0
  5  1  1  0  0  0  0
M  CHG  1   1  -1
M  END
$$$$
[Cu+]
 OpenBabel07182308452D

  1  0  0  0  0  0  0  0  0  0999 V2000
   -3.1821    1.2729    0.0000 Cu  0  3  0  0  0 15  0  0  0  0  0  0
M  CHG  1   1   1
M  END
$$$$
[O-][Si](=O)[O-]
 OpenBabel07182308452D

  4  3  0  0  0  0  0  0  0  0999 V2000
    1.8636    0.0000    0.0000 O   0  5  0  0  0  0  0  0  0  0  0  0
    2.6894    0.0000    0.0000 Si  0  0  0  0  0  0  0  0  0  0  0  0
    3.0913   -0.7142    0.0000 O   0  0  0  0  0  0  0  0  0  0  0  0
    3.0913    0.7142    0.0000 O   0  5  0  0  0  0  0  0  0  0  0  0
  1  2  1  0  0  0  0
  2  3  2  0  0  0  0
  2  4  1  0  0  0  0
M  CHG  2   1  -1   4  -1
M  END
$$$$
Nc1ccc(cc1)N
 OpenBabel07182308452D

 12 12  0  0  0  0  0  0  0  0999 V2000
    0.0000    0.8251    0.0000 C   0  0  0  0  0  0  0  0  0  0  0  0
   -0.7145    0.4125    0.0000 C   0  0  0  0  0  0  0  0  0  0  0  0
   -0.7145   -0.4125    0.0000 C   0  0  0  0  0  0  0  0  0  0  0  0
    0.0000   -0.8251    0.0000 C   0  0  0  0  0  0  0  0  0  0  0  0
    0.7145   -0.4125    0.0000 C   0  0  0  0  0  0  0  0  0  0  0  0
    0.7145    0.4125    0.0000 C   0  0  0  0  0  0  0  0  0  0  0  0
    0.0000    1.6501    0.0000 N   0  0  0  0  0  0  0  0  0  0  0  0
    0.0000   -1.6501    0.0000 N   0  0  0  0  0  0  0  0  0  0  0  0
    0.8526    2.1423    0.0000 H   0  0  0  0  0  0  0  0  0  0  0  0
   -0.8526    2.1423    0.0000 H   0  0  0  0  0  0  0  0  0  0  0  0
   -0.8526   -2.1423    0.0000 H   0  0  0  0  0  0  0  0  0  0  0  0
    0.8526   -2.1423    0.0000 H   0  0  0  0  0  0  0  0  0  0  0  0
  1  2  1  0  0  0  0
  1  6  2  0  0  0  0
  1  7  1  0  0  0  0
  2  3  2  0  0  0  0
  3  4  1  0  0  0  0
  4  5  2  0  0  0  0
  4  8  1  0  0  0  0
  5  6  1  0  0  0  0
  7  9  1  0  0  0  0
  7 10  1  0  0  0  0
  8 11  1  0  0  0  0
  8 12  1  0  0  0  0
M  END
$$$$
O[Cl](=O)=O
 OpenBabel07182308452D

  5  4  0  0  0  0  0  0  0  0999 V2000
    0.0000   -0.4125    0.0000 Cl  0  0  0  0  0  0  0  0  0  0  0  0
    0.7145   -0.8250    0.0000 O   0  0  0  0  0  0  0  0  0  0  0  0
   -0.7145   -0.8250    0.0000 O   0  0  0  0  0  0  0  0  0  0  0  0
    0.0000    0.4125    0.0000 O   0  0  0  0  0  0  0  0  0  0  0  0
    0.7145    0.8250    0.0000 H   0  0  0  0  0  0  0  0  0  0  0  0
  1  3  2  0  0  0  0
  1  4  1  0  0  0  0
  1  2  2  0  0  0  0
  4  5  1  0  0  0  0
M  END
$$$$
[P]
 OpenBabel07182308452D

  1  0  0  0  0  0  0  0  0  0999 V2000
    0.0000    0.0000    0.0000 P   0  0  0  0  0 15  0  0  0  0  0  0
M  END
$$$$
O=C1CC2C(C1(C)CC2)(C)C
 OpenBabel07182308452D

 11 12  0  0  0  0  0  0  0  0999 V2000
   -0.5952   -0.4125    0.0000 C   0  0  0  0  0  0  0  0  0  0  0  0
   -0.1190   -1.2374    0.0000 C   0  0  3  0  0  0  0  0  0  0  0  0
   -0.1190    0.4125    0.0000 C   0  0  3  0  0  0  0  0  0  0  0  0
   -0.1190    1.2374    0.0000 C   0  0  0  0  0  0  0  0  0  0  0  0
    0.5953    0.0000    0.0000 C   0  0  0  0  0  0  0  0  0  0  0  0
    1.3097    0.4125    0.0000 O   0  0  0  0  0  0  0  0  0  0  0  0
    0.5953   -0.8250    0.0000 C   0  0  0  0  0  0  0  0  0  0  0  0
   -1.3097   -0.8250    0.0000 C   0  0  0  0  0  0  0  0  0  0  0  0
   -1.3097    0.0000    0.0000 C   0  0  0  0  0  0  0  0  0  0  0  0
   -0.8334   -0.8250    0.0000 C   0  0  0  0  0  0  0  0  0  0  0  0
   -0.8335    0.0000    0.0000 C   0  0  0  0  0  0  0  0  0  0  0  0
  2  1  1  0  0  0  0
  2 10  1  0  0  0  0
  2  7  1  0  0  0  0
  3  1  1  0  0  0  0
  3  4  1  0  0  0  0
  3  5  1  0  0  0  0
  5  6  2  0  0  0  0
  5  7  1  0  0  0  0
  8  1  1  0  0  0  0
  9  1  1  0  0  0  0
 10 11  1  0  0  0  0
 11  3  1  0  0  0  0
M  END
$$$$
[Ni+2]
 OpenBabel07182308452D

  1  0  0  0  0  0  0  0  0  0999 V2000
   -1.5307    0.0000    0.0000 Ni  0  2  0  0  0 15  0  0  0  0  0  0
M  CHG  1   1   2
M  END
$$$$
[O-][Cr](=O)(=O)O
 OpenBabel07182308452D

  5  4  0  0  0  0  0  0  0  0999 V2000
    0.8250    0.8250    0.0000 O   0  0  0  0  0  0  0  0  0  0  0  0
    0.8250   -0.8250    0.0000 O   0  0  0  0  0  0  0  0  0  0  0  0
    0.8250    0.0000    0.0000 Cr  0  0  0  0  0  0  0  0  0  0  0  0
    0.0000    0.0000    0.0000 O   0  0  0  0  0  0  0  0  0  0  0  0
    1.6500    0.0000    0.0000 O   0  5  0  0  0  0  0  0  0  0  0  0
  3  1  2  0  0  0  0
  3  2  2  0  0  0  0
  3  5  1  0  0  0  0
  3  4  1  0  0  0  0
M  CHG  1   5  -1
M  END
$$$$
[O-][Cr](=O)=O
 OpenBabel07182308452D

  4  3  0  0  0  0  0  0  0  0999 V2000
   -0.8250    0.8250    0.0000 O   0  0  0  0  0  0  0  0  0  0  0  0
   -0.8250   -0.8250    0.0000 O   0  0  0  0  0  0  0  0  0  0  0  0
   -0.8250    0.0000    0.0000 Cr  0  0  0  0  0  0  0  0  0  0  0  0
   -1.6500    0.0000    0.0000 O   0  5  0  0  0  0  0  0  0  0  0  0
  3  1  2  0  0  0  0
  3  2  2  0  0  0  0
  3  4  1  0  0  0  0
M  CHG  1   4  -1
M  END
$$$$
CN1C(=O)CCc2c1cc(O)cc2
 OpenBabel07182308452D

 13 14  0  0  0  0  0  0  0  0999 V2000
   -3.6289   -0.3767    0.0000 C   0  0  0  0  0  0  0  0  0  0  0  0
   -4.3603   -0.7827    0.0000 C   0  0  0  0  0  0  0  0  0  0  0  0
   -4.3810   -1.6075    0.0000 C   0  0  0  0  0  0  0  0  0  0  0  0
   -2.9180   -0.7955    0.0000 C   0  0  0  0  0  0  0  0  0  0  0  0
   -2.9183   -1.6568    0.0000 C   0  0  0  0  0  0  0  0  0  0  0  0
   -3.6499   -2.0628    0.0000 C   0  0  0  0  0  0  0  0  0  0  0  0
   -2.9963   -3.3266    0.0000 C   0  0  0  0  0  0  0  0  0  0  0  0
   -2.2647   -2.9206    0.0000 C   0  0  0  0  0  0  0  0  0  0  0  0
   -2.2075   -2.0755    0.0000 N   0  0  0  0  0  0  0  0  0  0  0  0
   -1.5336   -3.3759    0.0000 O   0  0  0  0  0  0  0  0  0  0  0  0
   -3.6083    0.4479    0.0000 O   0  0  0  0  0  0  0  0  0  0  0  0
   -3.6705   -2.8875    0.0000 C   0  0  0  0  0  0  0  0  0  0  0  0
   -1.4778   -1.6905    0.0000 C   0  0  0  0  0  0  0  0  0  0  0  0
  1 11  1  0  0  0  0
  1  2  2  0  0  0  0
  2  3  1  0  0  0  0
  3  6  2  0  0  0  0
  4  1  1  0  0  0  0
  5  4  2  0  0  0  0
  5  6  1  0  0  0  0
  6 12  1  0  0  0  0
  7  8  1  0  0  0  0
  8  9  1  0  0  0  0
  8 10  2  0  0  0  0
  9  5  1  0  0  0  0
  9 13  1  0  0  0  0
 12  7  1  0  0  0  0
M  END
$$$$
[S-]C=S
 OpenBabel07182308452D

  3  2  0  0  0  0  0  0  0  0999 V2000
    0.0977   -0.0015    0.0000 C   0  0  0  0  0  0  0  0  0  0  0  0
    0.5087   -0.7186    0.0000 S   0  5  0  0  0  0  0  0  0  0  0  0
    0.5087    0.7186    0.0000 S   0  0  0  0  0  0  0  0  0  0  0  0
  2  1  1  0  0  0  0
  3  1  2  0  0  0  0
M  CHG  1   2  -1
M  END
$$$$
[S-]C(=S)N
 OpenBabel07182308452D

  4  3  0  0  0  0  0  0  0  0999 V2000
    0.0528    2.4827    0.0000 C   0  0  0  0  0  0  0  0  0  0  0  0
    0.4639    1.7656    0.0000 S   0  5  0  0  0  0  0  0  0  0  0  0
    0.4639    3.2029    0.0000 S   0  0  0  0  0  0  0  0  0  0  0  0
   -0.7692    2.4827    0.0000 N   0  0  0  0  0  0  0  0  0  0  0  0
  2  1  1  0  0  0  0
  3  1  2  0  0  0  0
  4  1  1  0  0  0  0
M  CHG  1   2  -1
M  END
$$$$
Cn1sc(cc1=O)Cl
 OpenBabel07182308452D

  8  8  0  0  0  0  0  0  0  0999 V2000
    0.2773    1.3811    0.0000 C   0  0  0  0  0  0  0  0  0  0  0  0
    0.2773    0.5560    0.0000 N   0  0  0  0  0  0  0  0  0  0  0  0
    0.9448    0.0710    0.0000 S   0  0  0  0  0  0  0  0  0  0  0  0
    0.6899   -0.7136    0.0000 C   0  0  0  0  0  0  0  0  0  0  0  0
   -0.1351   -0.7136    0.0000 C   0  0  0  0  0  0  0  0  0  0  0  0
   -0.3901    0.0710    0.0000 C   0  0  0  0  0  0  0  0  0  0  0  0
   -1.1748    0.3260    0.0000 O   0  0  0  0  0  0  0  0  0  0  0  0
    1.1748   -1.3811    0.0000 Cl  0  0  0  0  0  0  0  0  0  0  0  0
  1  2  1  0  0  0  0
  2  3  1  0  0  0  0
  2  6  1  0  0  0  0
  3  4  1  0  0  0  0
  4  5  2  0  0  0  0
  4  8  1  0  0  0  0
  5  6  1  0  0  0  0
  6  7  2  0  0  0  0
M  END
$$$$
C[N+]12CN3CN(C2)CN(C1)C3
 OpenBabel07182308452D

 11 13  0  0  0  0  0  0  0  0999 V2000
   -1.9201    0.8250    0.0000 C   0  0  0  0  0  0  0  0  0  0  0  0
   -1.2057   -0.4125    0.0000 C   0  0  0  0  0  0  0  0  0  0  0  0
   -0.4912    0.8250    0.0000 C   0  0  0  0  0  0  0  0  0  0  0  0
   -2.3666   -0.8130    0.0000 C   0  0  0  0  0  0  0  0  0  0  0  0
   -0.8978   -0.8130    0.0000 C   0  0  0  0  0  0  0  0  0  0  0  0
   -1.2057    1.2374    0.0000 N   0  0  3  0  0  0  0  0  0  0  0  0
   -0.4912    0.0000    0.0000 N   0  3  3  0  0  0  0  0  0  0  0  0
   -1.9201    0.0000    0.0000 N   0  0  3  0  0  0  0  0  0  0  0  0
   -1.6272    0.3790    0.0000 C   0  0  0  0  0  0  0  0  0  0  0  0
   -1.6272   -0.5127    0.0000 N   0  0  3  0  0  0  0  0  0  0  0  0
    0.2232   -0.4125    0.0000 C   0  0  0  0  0  0  0  0  0  0  0  0
  1  8  1  0  0  0  0
  4 10  1  0  0  0  0
  4  8  1  0  0  0  0
  5  7  1  0  0  0  0
  5 10  1  0  0  0  0
  6  1  1  0  0  0  0
  6  3  1  0  0  0  0
  6  9  1  0  0  0  0
  7  3  1  0  0  0  0
  7  2  1  0  0  0  0
  7 11  1  0  0  0  0
  8  2  1  0  0  0  0
 10  9  1  0  0  0  0
M  CHG  1   7   1
M  END
$$$$
CC(C#N)Br
 OpenBabel07182308452D

  5  4  0  0  0  0  0  0  0  0999 V2000
   -0.2062    0.6187    0.0000 C   0  0  3  0  0  0  0  0  0  0  0  0
   -0.2062   -0.2062    0.0000 C   0  0  0  0  0  0  0  0  0  0  0  0
   -0.2062    1.4437    0.0000 C   0  0  0  0  0  0  0  0  0  0  0  0
   -0.2062    2.2687    0.0000 N   0  0  0  0  0  0  0  0  0  0  0  0
   -1.0312    0.6187    0.0000 Br  0  0  0  0  0  0  0  0  0  0  0  0
  1  2  1  0  0  0  0
  1  3  1  0  0  0  0
  1  5  1  0  0  0  0
  3  4  3  0  0  0  0
M  END
$$$$
Sc1nc2c(s1)cccc2
 OpenBabel07182308452D

 10 11  0  0  0  0  0  0  0  0999 V2000
    3.2056    0.7145    0.0000 C   0  0  0  0  0  0  0  0  0  0  0  0
    3.2056   -0.1105    0.0000 C   0  0  0  0  0  0  0  0  0  0  0  0
    2.4912   -0.5230    0.0000 C   0  0  0  0  0  0  0  0  0  0  0  0
    1.7766   -0.1105    0.0000 C   0  0  0  0  0  0  0  0  0  0  0  0
    1.7766    0.7145    0.0000 C   0  0  0  0  0  0  0  0  0  0  0  0
    2.4912    1.1270    0.0000 C   0  0  0  0  0  0  0  0  0  0  0  0
    0.9920    0.9695    0.0000 N   0  0  0  0  0  0  0  0  0  0  0  0
    0.5070    0.3019    0.0000 C   0  0  0  0  0  0  0  0  0  0  0  0
    0.9920   -0.3654    0.0000 S   0  0  0  0  0  0  0  0  0  0  0  0
   -0.3179    0.3019    0.0000 S   0  0  0  0  0  0  0  0  0  0  0  0
  1  2  2  0  0  0  0
  1  6  1  0  0  0  0
  2  3  1  0  0  0  0
  3  4  2  0  0  0  0
  4  5  1  0  0  0  0
  4  9  1  0  0  0  0
  5  6  2  0  0  0  0
  5  7  1  0  0  0  0
  7  8  2  0  0  0  0
  8  9  1  0  0  0  0
  8 10  1  0  0  0  0
M  END
$$$$
[Co+2]
 OpenBabel07182308452D

  1  0  0  0  0  0  0  0  0  0999 V2000
   -0.4125    0.0000    0.0000 Co  0  2  0  0  0 15  0  0  0  0  0  0
M  CHG  1   1   2
M  END
$$$$
[O-]C1=C(O)C(=O)OC1
 OpenBabel07182308452D

 10 10  0  0  0  0  0  0  0  0999 V2000
    0.6794    0.6326    0.0000 O   0  0  0  0  0  0  0  0  0  0  0  0
   -0.2180   -1.3045    0.0000 O   0  5  0  0  0  0  0  0  0  0  0  0
    1.5768   -1.3045    0.0000 O   0  0  0  0  0  0  0  0  0  0  0  0
    1.3468    0.1476    0.0000 C   0  0  0  0  0  0  0  0  0  0  0  0
    2.1316    0.4025    0.0000 O   0  0  0  0  0  0  0  0  0  0  0  0
    1.0919   -0.6369    0.0000 C   0  0  0  0  0  0  0  0  0  0  0  0
    0.2668   -0.6369    0.0000 C   0  0  0  0  0  0  0  0  0  0  0  0
    0.0120    0.1476    0.0000 C   0  0  0  0  0  0  0  0  0  0  0  0
   -0.7025   -0.2648    0.0000 H   0  0  0  0  0  0  0  0  0  0  0  0
    1.1956   -2.1604    0.0000 H   0  0  0  0  0  0  0  0  0  0  0  0
  1  4  1  0  0  0  0
  3 10  1  0  0  0  0
  4  5  2  0  0  0  0
  4  6  1  0  0  0  0
  6  3  1  0  0  0  0
  6  7  2  0  0  0  0
  7  2  1  0  0  0  0
  8  1  1  0  0  0  0
  8  7  1  0  0  0  0
  8  9  1  0  0  0  0
M  CHG  1   2  -1
M  END
$$$$
[O-]C1=C([O-])C(=O)OC1
 OpenBabel07182308452D

  9  9  0  0  0  0  0  0  0  0999 V2000
   -2.1154   -0.5519    0.0000 C   0  0  0  0  0  0  0  0  0  0  0  0
   -1.8604   -1.3366    0.0000 C   0  0  0  0  0  0  0  0  0  0  0  0
   -1.4479   -0.0670    0.0000 C   0  0  0  0  0  0  0  0  0  0  0  0
   -1.0354   -1.3366    0.0000 C   0  0  0  0  0  0  0  0  0  0  0  0
   -2.9000   -0.2970    0.0000 O   0  5  0  0  0  0  0  0  0  0  0  0
   -2.3453   -2.0040    0.0000 O   0  5  0  0  0  0  0  0  0  0  0  0
   -0.5505   -2.0040    0.0000 O   0  0  0  0  0  0  0  0  0  0  0  0
   -0.7805   -0.5519    0.0000 O   0  0  0  0  0  0  0  0  0  0  0  0
   -2.1830    0.3074    0.0000 H   0  0  0  0  0  0  0  0  0  0  0  0
  2  1  2  0  0  0  0
  3  1  1  0  0  0  0
  3  8  1  0  0  0  0
  3  9  1  0  0  0  0
  4  2  1  0  0  0  0
  5  1  1  0  0  0  0
  6  2  1  0  0  0  0
  7  4  2  0  0  0  0
  8  4  1  0  0  0  0
M  CHG  2   5  -1   6  -1
M  END
$$$$
[O-][Mo](=O)(=O)[O-]
 OpenBabel07182308452D

  5  4  0  0  0  0  0  0  0  0999 V2000
   -0.5009    0.4674    0.0000 Mo  0  0  0  0  0  0  0  0  0  0  0  0
   -0.5009   -0.3589    0.0000 O   0  5  0  0  0  0  0  0  0  0  0  0
    0.5009    0.4674    0.0000 O   0  5  0  0  0  0  0  0  0  0  0  0
   -0.5009    1.2911    0.0000 O   0  0  0  0  0  0  0  0  0  0  0  0
   -1.2911    0.4674    0.0000 O   0  0  0  0  0  0  0  0  0  0  0  0
  1  2  1  0  0  0  0
  1  3  1  0  0  0  0
  1  4  2  0  0  0  0
  1  5  2  0  0  0  0
M  CHG  2   2  -1   3  -1
M  END
$$$$
[K]
 OpenBabel07182308452D

  1  0  0  0  0  0  0  0  0  0999 V2000
    0.0000    0.0000    0.0000 K   0  0  0  0  0 15  0  0  0  0  0  0
M  END
$$$$
[O-]B1OB2OB(OB(O1)O2)[O-]
 OpenBabel07182308452D

 11 12  0  0  0  0  0  0  0  0999 V2000
    1.0534    0.0000    0.0000 B   0  0  0  0  0  0  0  0  0  0  0  0
   -1.1024    0.0000    0.0000 B   0  0  0  0  0  0  0  0  0  0  0  0
   -0.0244   -1.0779    0.0000 B   0  0  0  0  0  0  0  0  0  0  0  0
   -0.0244    1.0779    0.0000 B   0  0  0  0  0  0  0  0  0  0  0  0
    1.8784    0.0000    0.0000 O   0  5  0  0  0  0  0  0  0  0  0  0
   -1.9274    0.0000    0.0000 O   0  5  0  0  0  0  0  0  0  0  0  0
    0.7377   -0.7622    0.0000 O   0  0  0  0  0  0  0  0  0  0  0  0
    0.7377    0.7622    0.0000 O   0  0  0  0  0  0  0  0  0  0  0  0
   -0.7866   -0.7622    0.0000 O   0  0  0  0  0  0  0  0  0  0  0  0
   -0.7866    0.7622    0.0000 O   0  0  0  0  0  0  0  0  0  0  0  0
    0.2449    0.0000    0.0000 O   0  0  0  0  0  0  0  0  0  0  0  0
  5  1  1  0  0  0  0
  6  2  1  0  0  0  0
  7  1  1  0  0  0  0
  7  3  1  0  0  0  0
  8  1  1  0  0  0  0
  8  4  1  0  0  0  0
  9  2  1  0  0  0  0
  9  3  1  0  0  0  0
 10  2  1  0  0  0  0
 10  4  1  0  0  0  0
 11  3  1  0  0  0  0
 11  4  1  0  0  0  0
M  CHG  2   5  -1   6  -1
M  END
$$$$
[Li+]
 OpenBabel07182308452D

  1  0  0  0  0  0  0  0  0  0999 V2000
   -0.4125    0.0000    0.0000 Li  0  3  0  0  0 15  0  0  0  0  0  0
M  CHG  1   1   1
M  END
$$$$
O=C1C=C[C@]2(C(=C1)CC[C@@H]1[C@]2(Cl)[C@@H](O)C[C@]2([C@H]1C[C@H]([C@H]2O)C)C)C
 OpenBabel07182308452D

 27 30  0  0  0  0  0  0  0  0999 V2000
   -0.7577   -1.9837    0.0000 C   0  0  0  0  0  0  0  0  0  0  0  0
   -0.7577   -1.1587    0.0000 C   0  0  2  0  0  0  0  0  0  0  0  0
   -2.1867   -1.9837    0.0000 C   0  0  0  0  0  0  0  0  0  0  0  0
   -1.4722   -2.3962    0.0000 C   0  0  0  0  0  0  0  0  0  0  0  0
   -1.4722   -0.7462    0.0000 C   0  0  1  0  0  0  0  0  0  0  0  0
   -2.1867   -1.1587    0.0000 C   0  0  1  0  0  0  0  0  0  0  0  0
   -3.6156   -1.1587    0.0000 C   0  0  0  0  0  0  0  0  0  0  0  0
   -3.6156   -1.9837    0.0000 C   0  0  0  0  0  0  0  0  0  0  0  0
   -2.9011   -2.3962    0.0000 C   0  0  0  0  0  0  0  0  0  0  0  0
   -2.9011   -0.7462    0.0000 C   0  0  0  0  0  0  0  0  0  0  0  0
   -0.7577    0.4913    0.0000 C   0  0  0  0  0  0  0  0  0  0  0  0
   -1.4722    0.0787    0.0000 C   0  0  2  0  0  0  0  0  0  0  0  0
    0.7413   -1.0010    0.0000 C   0  0  0  0  0  0  0  0  0  0  0  0
    1.2262   -0.3337    0.0000 C   0  0  2  0  0  0  0  0  0  0  0  0
    0.7413    0.3337    0.0000 C   0  0  2  0  0  0  0  0  0  0  0  0
   -4.3301   -2.3962    0.0000 O   0  0  0  0  0  0  0  0  0  0  0  0
   -1.4722   -1.5712    0.0000 Cl  0  0  0  0  0  0  0  0  0  0  0  0
   -0.7577   -0.3337    0.0000 H   0  0  0  0  0  0  0  0  0  0  0  0
   -0.0433    0.0787    0.0000 C   0  0  1  0  0  0  0  0  0  0  0  0
   -0.0433    0.9038    0.0000 C   0  0  0  0  0  0  0  0  0  0  0  0
   -0.0433   -0.7462    0.0000 C   0  0  2  0  0  0  0  0  0  0  0  0
   -0.0433   -1.5712    0.0000 H   0  0  0  0  0  0  0  0  0  0  0  0
   -2.1867   -0.3337    0.0000 C   0  0  0  0  0  0  0  0  0  0  0  0
   -2.1867    0.4913    0.0000 O   0  0  0  0  0  0  0  0  0  0  0  0
    2.0512   -0.3337    0.0000 C   0  0  0  0  0  0  0  0  0  0  0  0
    1.5663    0.3337    0.0000 O   0  0  0  0  0  0  0  0  0  0  0  0
   -2.1866    1.4613    0.0000 H   0  0  0  0  0  0  0  0  0  0  0  0
  2  1  1  0  0  0  0
  2 21  1  6  0  0  0
  2 18  1  0  0  0  0
  3  4  1  0  0  0  0
  4  1  1  0  0  0  0
  5  2  1  1  0  0  0
  5 17  1  0  0  0  0
  6  3  1  0  0  0  0
  6  5  1  6  0  0  0
  6 10  1  0  0  0  0
  6 23  1  0  0  0  0
  7  8  1  0  0  0  0
  7 10  2  0  0  0  0
  8  9  1  0  0  0  0
  8 16  2  0  0  0  0
  9  3  2  0  0  0  0
 11 12  1  0  0  0  0
 12  5  1  1  0  0  0
 12 24  1  0  0  0  0
 13 14  1  0  0  0  0
 14 25  1  6  0  0  0
 15 14  1  0  0  0  0
 15 19  1  6  0  0  0
 15 26  1  0  0  0  0
 19 11  1  0  0  0  0
 19 21  1  1  0  0  0
 19 20  1  0  0  0  0
 21 13  1  0  0  0  0
 21 22  1  6  0  0  0
 24 27  1  0  0  0  0
M  END
$$$$
[Mg]
 OpenBabel07182308452D

  1  0  0  0  0  0  0  0  0  0999 V2000
    0.0000    0.0000    0.0000 Mg  0  0  0  0  0 15  0  0  0  0  0  0
M  END
$$$$
[O-]CC
 OpenBabel07182308452D

  3  2  0  0  0  0  0  0  0  0999 V2000
    0.3957    0.2071    0.0000 C   0  0  0  0  0  0  0  0  0  0  0  0
    1.1138   -0.2071    0.0000 C   0  0  0  0  0  0  0  0  0  0  0  0
    0.3957    1.0311    0.0000 O   0  5  0  0  0  0  0  0  0  0  0  0
  1  2  1  0  0  0  0
  1  3  1  0  0  0  0
M  CHG  1   3  -1
M  END
$$$$
[Cr+2]
 OpenBabel07182308452D

  1  0  0  0  0  0  0  0  0  0999 V2000
    0.0000    0.0000    0.0000 Cr  0  2  0  0  0 15  0  0  0  0  0  0
M  CHG  1   1   2
M  END
$$$$
O=C1NCCSSC[C@H](N)C(=O)N[C@H](C(=O)NCC(=O)N[C@H](C(=O)NC1)C)C
 OpenBabel07182308452D

 34 34  0  0  0  0  0  0  0  0999 V2000
    3.4175    0.7823    0.0000 C   0  0  0  0  0  0  0  0  0  0  0  0
    4.2033    0.5310    0.0000 C   0  0  0  0  0  0  0  0  0  0  0  0
    4.3785   -0.2751    0.0000 O   0  0  0  0  0  0  0  0  0  0  0  0
    4.8139    1.0859    0.0000 N   0  0  0  0  0  0  0  0  0  0  0  0
    5.5997    0.8345    0.0000 C   0  0  1  0  0  0  0  0  0  0  0  0
    6.2102    1.3893    0.0000 C   0  0  0  0  0  0  0  0  0  0  0  0
    5.7749    0.0284    0.0000 C   0  0  0  0  0  0  0  0  0  0  0  0
    5.1643   -0.5265    0.0000 O   0  0  0  0  0  0  0  0  0  0  0  0
    6.5607   -0.2229    0.0000 N   0  0  0  0  0  0  0  0  0  0  0  0
    6.7359   -1.0292    0.0000 C   0  0  0  0  0  0  0  0  0  0  0  0
    6.1254   -1.5840    0.0000 C   0  0  0  0  0  0  0  0  0  0  0  0
    5.3395   -1.3326    0.0000 O   0  0  0  0  0  0  0  0  0  0  0  0
    6.3005   -2.3901    0.0000 N   0  0  0  0  0  0  0  0  0  0  0  0
    5.6900   -2.9450    0.0000 C   0  0  0  0  0  0  0  0  0  0  0  0
    4.9042   -2.6936    0.0000 C   0  0  0  0  0  0  0  0  0  0  0  0
    4.2936   -3.2485    0.0000 S   0  0  0  0  0  0  0  0  0  0  0  0
    0.7949   -4.5208    0.0000 S   0  0  0  0  0  0  0  0  0  0  0  0
    2.0145   -0.3023    0.0000 C   0  0  0  0  0  0  0  0  0  0  0  0
    0.0865    1.8116    0.0000 C   0  0  2  0  0  0  0  0  0  0  0  0
   -0.6085    2.0014    0.0000 N   0  0  0  0  0  0  0  0  0  0  0  0
    0.9108    1.8441    0.0000 C   0  0  0  0  0  0  0  0  0  0  0  0
    1.3512    1.1464    0.0000 O   0  0  0  0  0  0  0  0  0  0  0  0
    1.2948    2.5743    0.0000 N   0  0  0  0  0  0  0  0  0  0  0  0
    2.1123    2.4632    0.0000 C   0  0  1  0  0  0  0  0  0  0  0  0
    2.6173    3.1156    0.0000 C   0  0  0  0  0  0  0  0  0  0  0  0
    2.4249    1.6997    0.0000 C   0  0  0  0  0  0  0  0  0  0  0  0
    1.9199    1.0472    0.0000 O   0  0  0  0  0  0  0  0  0  0  0  0
    3.2423    1.5886    0.0000 N   0  0  0  0  0  0  0  0  0  0  0  0
    4.6048    2.0479    0.0000 H   0  0  0  0  0  0  0  0  0  0  0  0
    7.2893    0.4392    0.0000 H   0  0  0  0  0  0  0  0  0  0  0  0
    7.2382   -2.6900    0.0000 H   0  0  0  0  0  0  0  0  0  0  0  0
   -0.9874    2.9101    0.0000 H   0  0  0  0  0  0  0  0  0  0  0  0
    0.8439    3.4495    0.0000 H   0  0  0  0  0  0  0  0  0  0  0  0
    3.9105    2.3117    0.0000 H   0  0  0  0  0  0  0  0  0  0  0  0
  1  2  1  0  0  0  0
  2  3  2  0  0  0  0
  4  2  1  0  0  0  0
  4  5  1  0  0  0  0
  4 29  1  0  0  0  0
  5  6  1  1  0  0  0
  5  7  1  0  0  0  0
  7  8  2  0  0  0  0
  9  7  1  0  0  0  0
  9 30  1  0  0  0  0
 10  9  1  0  0  0  0
 10 11  1  0  0  0  0
 11 12  2  0  0  0  0
 13 11  1  0  0  0  0
 13 14  1  0  0  0  0
 13 31  1  0  0  0  0
 14 15  1  0  0  0  0
 15 16  1  0  0  0  0
 16 17  1  0  0  0  0
 18 17  1  0  0  0  0
 19 18  1  0  0  0  0
 19 20  1  6  0  0  0
 19 21  1  0  0  0  0
 20 32  1  0  0  0  0
 21 22  2  0  0  0  0
 23 21  1  0  0  0  0
 23 24  1  0  0  0  0
 23 33  1  0  0  0  0
 24 25  1  1  0  0  0
 24 26  1  0  0  0  0
 26 27  2  0  0  0  0
 28 26  1  0  0  0  0
 28  1  1  0  0  0  0
 28 34  1  0  0  0  0
M  END
$$$$
Nc1cncc(c1)F
 OpenBabel07182308452D

  8  8  0  0  0  0  0  0  0  0999 V2000
    1.2561   -0.8314    0.0000 N   0  0  0  0  0  0  0  0  0  0  0  0
    1.1838   -1.6538    0.0000 C   0  0  0  0  0  0  0  0  0  0  0  0
    0.4428   -1.9972    0.0000 C   0  0  0  0  0  0  0  0  0  0  0  0
    0.3614   -2.8196    0.0000 C   0  0  0  0  0  0  0  0  0  0  0  0
   -0.3886   -3.1721    0.0000 F   0  0  0  0  0  0  0  0  0  0  0  0
    1.0302   -3.2986    0.0000 C   0  0  0  0  0  0  0  0  0  0  0  0
    1.7803   -2.9461    0.0000 N   0  0  0  0  0  0  0  0  0  0  0  0
    1.8616   -2.1328    0.0000 C   0  0  0  0  0  0  0  0  0  0  0  0
  1  2  1  0  0  0  0
  2  3  2  0  0  0  0
  2  8  1  0  0  0  0
  3  4  1  0  0  0  0
  4  5  1  0  0  0  0
  4  6  2  0  0  0  0
  6  7  1  0  0  0  0
  7  8  2  0  0  0  0
M  END
$$$$
N#Cc1ccncc1
 OpenBabel07182308452D

  8  8  0  0  0  0  0  0  0  0999 V2000
   -1.5454   -0.2078    0.0000 C   0  0  0  0  0  0  0  0  0  0  0  0
   -1.3013    0.5874    0.0000 N   0  0  0  0  0  0  0  0  0  0  0  0
   -1.8616    1.1929    0.0000 C   0  0  0  0  0  0  0  0  0  0  0  0
   -2.6660    1.0121    0.0000 C   0  0  0  0  0  0  0  0  0  0  0  0
   -2.9100    0.2168    0.0000 C   0  0  0  0  0  0  0  0  0  0  0  0
   -3.7234    0.0361    0.0000 C   0  0  0  0  0  0  0  0  0  0  0  0
   -4.5186   -0.1536    0.0000 N   0  0  0  0  0  0  0  0  0  0  0  0
   -2.3497   -0.3886    0.0000 C   0  0  0  0  0  0  0  0  0  0  0  0
  1  2  2  0  0  0  0
  1  8  1  0  0  0  0
  2  3  1  0  0  0  0
  3  4  2  0  0  0  0
  4  5  1  0  0  0  0
  5  6  1  0  0  0  0
  5  8  2  0  0  0  0
  6  7  3  0  0  0  0
M  END
$$$$
FC1(F)CCC1
 OpenBabel07182308452D

  6  6  0  0  0  0  0  0  0  0999 V2000
    2.5846    1.4911    0.0000 C   0  0  0  0  0  0  0  0  0  0  0  0
    1.9520    2.0243    0.0000 C   0  0  0  0  0  0  0  0  0  0  0  0
    2.4761    2.6569    0.0000 C   0  0  0  0  0  0  0  0  0  0  0  0
    1.8435    3.1901    0.0000 F   0  0  0  0  0  0  0  0  0  0  0  0
    3.0094    3.2986    0.0000 F   0  0  0  0  0  0  0  0  0  0  0  0
    3.1088    2.1328    0.0000 C   0  0  0  0  0  0  0  0  0  0  0  0
  1  2  1  0  0  0  0
  1  6  1  0  0  0  0
  2  3  1  0  0  0  0
  3  4  1  0  0  0  0
  3  5  1  0  0  0  0
  3  6  1  0  0  0  0
M  END
$$$$
[Co]
 OpenBabel07182308452D

  1  0  0  0  0  0  0  0  0  0999 V2000
    0.0000    0.0000    0.0000 Co  0  0  0  0  0 15  0  0  0  0  0  0
M  END
$$$$
C=C1C[C@@H]2[C@](C1)(C)CC[C@H]1[C@H]2CCC2=CC(=O)CC[C@H]12
 OpenBabel07182308452D

 24 27  0  0  0  0  0  0  0  0999 V2000
    1.0984    0.8374    0.0000 C   0  0  0  0  0  0  0  0  0  0  0  0
    0.3860    0.4217    0.0000 C   0  0  2  0  0  0  0  0  0  0  0  0
    1.8109    0.4217    0.0000 C   0  0  0  0  0  0  0  0  0  0  0  0
    0.3860    1.2467    0.0000 C   0  0  0  0  0  0  0  0  0  0  0  0
    0.3860   -0.4115    0.0000 C   0  0  1  0  0  0  0  0  0  0  0  0
   -0.3264    0.8374    0.0000 C   0  0  0  0  0  0  0  0  0  0  0  0
    2.5276    0.8333    0.0000 C   0  0  0  0  0  0  0  0  0  0  0  0
    1.8109   -0.4115    0.0000 C   0  0  0  0  0  0  0  0  0  0  0  0
   -0.3264   -0.8272    0.0000 C   0  0  1  0  0  0  0  0  0  0  0  0
   -1.0390    0.4217    0.0000 C   0  0  0  0  0  0  0  0  0  0  0  0
   -1.0390   -0.4115    0.0000 C   0  0  2  0  0  0  0  0  0  0  0  0
   -0.3264   -1.6584    0.0000 C   0  0  0  0  0  0  0  0  0  0  0  0
   -1.7516   -0.8272    0.0000 C   0  0  2  0  0  0  0  0  0  0  0  0
   -1.0390   -2.0740    0.0000 C   0  0  0  0  0  0  0  0  0  0  0  0
   -1.7516   -1.6584    0.0000 C   0  0  0  0  0  0  0  0  0  0  0  0
   -2.4640   -0.4115    0.0000 C   0  0  0  0  0  0  0  0  0  0  0  0
   -2.4640   -2.0740    0.0000 C   0  0  0  0  0  0  0  0  0  0  0  0
   -3.1767   -0.8272    0.0000 C   0  0  0  0  0  0  0  0  0  0  0  0
   -3.1767   -1.6584    0.0000 C   0  0  0  0  0  0  0  0  0  0  0  0
   -3.8932   -2.0699    0.0000 O   0  0  0  0  0  0  0  0  0  0  0  0
   -0.3264   -0.0020    0.0000 H   0  0  0  0  0  0  0  0  0  0  0  0
   -1.0390   -1.2366    0.0000 H   0  0  0  0  0  0  0  0  0  0  0  0
    0.3860   -1.2366    0.0000 H   0  0  0  0  0  0  0  0  0  0  0  0
   -1.7516   -0.0020    0.0000 H   0  0  0  0  0  0  0  0  0  0  0  0
  1  3  1  0  0  0  0
  2  1  1  0  0  0  0
  2  4  1  0  0  0  0
  2  5  1  1  0  0  0
  2  6  1  0  0  0  0
  3  7  2  0  0  0  0
  3  8  1  0  0  0  0
  5  8  1  0  0  0  0
  5  9  1  1  0  0  0
  5 23  1  0  0  0  0
  6 10  1  0  0  0  0
  9 11  1  6  0  0  0
  9 12  1  0  0  0  0
  9 21  1  0  0  0  0
 11 10  1  0  0  0  0
 11 13  1  1  0  0  0
 11 22  1  0  0  0  0
 12 14  1  0  0  0  0
 13 15  1  0  0  0  0
 13 16  1  0  0  0  0
 13 24  1  1  0  0  0
 14 15  1  0  0  0  0
 15 17  2  0  0  0  0
 16 18  1  0  0  0  0
 17 19  1  0  0  0  0
 18 19  1  0  0  0  0
 19 20  2  0  0  0  0
M  END
$$$$
O=C1Cc2c(N1)cccc2
 OpenBabel07182308452D

 11 12  0  0  0  0  0  0  0  0999 V2000
   -0.2052    2.2158    0.0000 O   0  0  0  0  0  0  0  0  0  0  0  0
    1.1048    2.8832    0.0000 N   0  0  0  0  0  0  0  0  0  0  0  0
    1.1048    1.5483    0.0000 C   0  0  0  0  0  0  0  0  0  0  0  0
    1.8893    1.8033    0.0000 C   0  0  0  0  0  0  0  0  0  0  0  0
    0.6198    2.2158    0.0000 C   0  0  0  0  0  0  0  0  0  0  0  0
    1.8893    2.6283    0.0000 C   0  0  0  0  0  0  0  0  0  0  0  0
    2.6038    1.3908    0.0000 C   0  0  0  0  0  0  0  0  0  0  0  0
    2.6038    3.0408    0.0000 C   0  0  0  0  0  0  0  0  0  0  0  0
    3.3183    1.8033    0.0000 C   0  0  0  0  0  0  0  0  0  0  0  0
    3.3183    2.6283    0.0000 C   0  0  0  0  0  0  0  0  0  0  0  0
    0.8006    3.8195    0.0000 H   0  0  0  0  0  0  0  0  0  0  0  0
  1  5  2  0  0  0  0
  2  5  1  0  0  0  0
  2  6  1  0  0  0  0
  2 11  1  0  0  0  0
  3  4  1  0  0  0  0
  3  5  1  0  0  0  0
  4  6  1  0  0  0  0
  4  7  2  0  0  0  0
  6  8  2  0  0  0  0
  7  9  1  0  0  0  0
  8 10  1  0  0  0  0
  9 10  2  0  0  0  0
M  END
$$$$
O=C1N[C@@H](C)C(=O)N[C@@H](C)C(=O)NCCSSC[C@@H](C(=O)N[C@H](C(=O)N[C@H]1C)C)N
 OpenBabel07182308452D

 38 38  0  0  0  0  0  0  0  0999 V2000
   -1.4412   -0.1142    0.0000 S   0  0  0  0  0  0  0  0  0  0  0  0
   -1.4313    0.7553    0.0000 S   0  0  0  0  0  0  0  0  0  0  0  0
   -0.6700   -3.1442    0.0000 O   0  0  0  0  0  0  0  0  0  0  0  0
    2.2724   -2.2913    0.0000 O   0  0  0  0  0  0  0  0  0  0  0  0
    3.7250   -0.5842    0.0000 O   0  0  0  0  0  0  0  0  0  0  0  0
    2.9846    2.3853    0.0000 O   0  0  0  0  0  0  0  0  0  0  0  0
    0.0509    3.2615    0.0000 O   0  0  0  0  0  0  0  0  0  0  0  0
    0.0551   -1.8701    0.0000 N   0  0  0  0  0  0  0  0  0  0  0  0
    1.5537   -2.7421    0.0000 N   0  0  0  0  0  0  0  0  0  0  0  0
    2.2644   -0.6017    0.0000 N   0  0  0  0  0  0  0  0  0  0  0  0
    2.2621    1.1244    0.0000 N   0  0  0  0  0  0  0  0  0  0  0  0
    0.7872    2.0012    0.0000 N   0  0  0  0  0  0  0  0  0  0  0  0
   -1.4197    2.4190    0.0000 N   0  0  0  0  0  0  0  0  0  0  0  0
   -0.6936   -1.4314    0.0000 C   0  0  0  0  0  0  0  0  0  0  0  0
   -0.6836   -0.5531    0.0000 C   0  0  0  0  0  0  0  0  0  0  0  0
    0.0453   -2.7336    0.0000 C   0  0  0  0  0  0  0  0  0  0  0  0
    0.8084   -3.1678    0.0000 C   0  0  2  0  0  0  0  0  0  0  0  0
    1.3380   -3.8003    0.0000 C   0  0  0  0  0  0  0  0  0  0  0  0
    2.2644   -1.4608    0.0000 C   0  0  2  0  0  0  0  0  0  0  0  0
    1.5557   -1.8829    0.0000 C   0  0  0  0  0  0  0  0  0  0  0  0
    2.9814   -1.8684    0.0000 C   0  0  0  0  0  0  0  0  0  0  0  0
   -0.6723    1.1863    0.0000 C   0  0  0  0  0  0  0  0  0  0  0  0
    3.0032    0.6851    0.0000 C   0  0  2  0  0  0  0  0  0  0  0  0
   -0.7003    2.0156    0.0000 C   0  0  1  0  0  0  0  0  0  0  0  0
    3.0095   -0.1738    0.0000 C   0  0  0  0  0  0  0  0  0  0  0  0
    1.5376    2.4178    0.0000 C   0  0  2  0  0  0  0  0  0  0  0  0
    4.2546    1.4043    0.0000 C   0  0  0  0  0  0  0  0  0  0  0  0
    2.2658    1.9806    0.0000 C   0  0  0  0  0  0  0  0  0  0  0  0
    0.0445    2.4367    0.0000 C   0  0  0  0  0  0  0  0  0  0  0  0
    1.5620    3.8611    0.0000 C   0  0  0  0  0  0  0  0  0  0  0  0
    0.2798   -3.8011    0.0000 H   0  0  0  0  0  0  0  0  0  0  0  0
    0.9120   -1.3854    0.0000 H   0  0  0  0  0  0  0  0  0  0  0  0
    2.4046   -3.2373    0.0000 H   0  0  0  0  0  0  0  0  0  0  0  0
    1.4124   -0.1085    0.0000 H   0  0  0  0  0  0  0  0  0  0  0  0
    1.4056    0.6389    0.0000 H   0  0  0  0  0  0  0  0  0  0  0  0
    0.7756    1.0168    0.0000 H   0  0  0  0  0  0  0  0  0  0  0  0
   -1.4325    3.4389    0.0000 H   0  0  0  0  0  0  0  0  0  0  0  0
   -2.2966    1.8980    0.0000 H   0  0  0  0  0  0  0  0  0  0  0  0
  1  2  1  0  0  0  0
  1 15  1  0  0  0  0
  2 22  1  0  0  0  0
  3 16  2  0  0  0  0
  4 20  2  0  0  0  0
  5 25  2  0  0  0  0
  6 28  2  0  0  0  0
  7 29  2  0  0  0  0
  8 14  1  0  0  0  0
  8 16  1  0  0  0  0
  8 32  1  0  0  0  0
  9 17  1  0  0  0  0
  9 20  1  0  0  0  0
  9 33  1  0  0  0  0
 10 19  1  0  0  0  0
 10 25  1  0  0  0  0
 10 34  1  0  0  0  0
 11 23  1  0  0  0  0
 11 28  1  0  0  0  0
 11 35  1  0  0  0  0
 12 26  1  0  0  0  0
 12 29  1  0  0  0  0
 12 36  1  0  0  0  0
 13 37  1  0  0  0  0
 13 38  1  0  0  0  0
 14 15  1  0  0  0  0
 16 17  1  0  0  0  0
 17 18  1  0  0  0  0
 17 31  1  6  0  0  0
 19 20  1  0  0  0  0
 19 21  1  1  0  0  0
 22 24  1  0  0  0  0
 23 25  1  0  0  0  0
 23 27  1  1  0  0  0
 24 29  1  0  0  0  0
 24 13  1  6  0  0  0
 26 28  1  0  0  0  0
 26 30  1  1  0  0  0
M  END
$$$$
O=C1C=C[C@]2(C(=C1)CC[C@@H]1[C@@H]2C(=O)C[C@]2([C@H]1CCC2O)C)C
 OpenBabel07182308452D

 26 29  0  0  0  0  0  0  0  0999 V2000
    1.1067   -1.0011    0.0000 C   0  0  0  0  0  0  0  0  0  0  0  0
   -0.3923   -1.9837    0.0000 C   0  0  0  0  0  0  0  0  0  0  0  0
    1.1067    0.3337    0.0000 C   0  0  3  0  0  0  0  0  0  0  0  0
   -0.3923    0.4912    0.0000 C   0  0  0  0  0  0  0  0  0  0  0  0
    1.5916   -0.3337    0.0000 C   0  0  0  0  0  0  0  0  0  0  0  0
   -1.8213   -1.1587    0.0000 C   0  0  2  0  0  0  0  0  0  0  0  0
   -1.1068    0.0787    0.0000 C   0  0  0  0  0  0  0  0  0  0  0  0
   -1.1068   -2.3962    0.0000 C   0  0  0  0  0  0  0  0  0  0  0  0
   -1.8213   -1.9837    0.0000 C   0  0  0  0  0  0  0  0  0  0  0  0
   -2.5358   -0.7462    0.0000 C   0  0  0  0  0  0  0  0  0  0  0  0
   -2.5358   -2.3962    0.0000 C   0  0  0  0  0  0  0  0  0  0  0  0
   -3.2502   -1.1587    0.0000 C   0  0  0  0  0  0  0  0  0  0  0  0
   -0.3923   -1.1587    0.0000 C   0  0  2  0  0  0  0  0  0  0  0  0
   -0.3923   -0.3337    0.0000 H   0  0  0  0  0  0  0  0  0  0  0  0
   -1.1068   -0.7462    0.0000 C   0  0  1  0  0  0  0  0  0  0  0  0
   -1.1068   -1.5712    0.0000 H   0  0  0  0  0  0  0  0  0  0  0  0
    0.3220    0.0787    0.0000 C   0  0  2  0  0  0  0  0  0  0  0  0
    0.3220    0.9037    0.0000 C   0  0  0  0  0  0  0  0  0  0  0  0
    0.3220   -0.7462    0.0000 C   0  0  1  0  0  0  0  0  0  0  0  0
    0.3220   -1.5712    0.0000 H   0  0  0  0  0  0  0  0  0  0  0  0
   -3.9647   -2.3962    0.0000 O   0  0  0  0  0  0  0  0  0  0  0  0
   -3.2502   -1.9837    0.0000 C   0  0  0  0  0  0  0  0  0  0  0  0
   -1.8213   -0.3337    0.0000 C   0  0  0  0  0  0  0  0  0  0  0  0
    1.8213    0.1498    0.0000 O   0  0  0  0  0  0  0  0  0  0  0  0
   -1.8213    0.4912    0.0000 O   0  0  0  0  0  0  0  0  0  0  0  0
    2.0816   -0.7846    0.0000 H   0  0  0  0  0  0  0  0  0  0  0  0
  2  8  1  0  0  0  0
  3  5  1  0  0  0  0
  3 24  1  0  0  0  0
  4  7  1  0  0  0  0
  5  1  1  0  0  0  0
  6 15  1  6  0  0  0
  6  9  1  0  0  0  0
  6 10  1  0  0  0  0
  6 23  1  0  0  0  0
  7 25  2  0  0  0  0
  8  9  1  0  0  0  0
  9 11  2  0  0  0  0
 10 12  2  0  0  0  0
 11 22  1  0  0  0  0
 12 22  1  0  0  0  0
 13 19  1  6  0  0  0
 13  2  1  0  0  0  0
 13 14  1  0  0  0  0
 15 13  1  1  0  0  0
 15  7  1  0  0  0  0
 15 16  1  0  0  0  0
 17 19  1  1  0  0  0
 17  3  1  0  0  0  0
 17  4  1  0  0  0  0
 17 18  1  0  0  0  0
 19  1  1  0  0  0  0
 19 20  1  6  0  0  0
 22 21  2  0  0  0  0
 24 26  1  0  0  0  0
M  END
$$$$
O=C1C=C[C@]2(C(=C1)CC[C@@H]1[C@]2(F)[C@@H](O)C[C@]2([C@H]1C[C@H](C2O)C)C)C
 OpenBabel07182308452D

 28 31  0  0  0  0  0  0  0  0999 V2000
    0.3921   -0.2271    0.0000 C   0  0  1  0  0  0  0  0  0  0  0  0
   -1.0452   -1.0438    0.0000 C   0  0  2  0  0  0  0  0  0  0  0  0
   -1.7576   -1.4562    0.0000 C   0  0  2  0  0  0  0  0  0  0  0  0
    0.3879   -1.0520    0.0000 C   0  0  2  0  0  0  0  0  0  0  0  0
   -0.3244   -1.4562    0.0000 C   0  0  2  0  0  0  0  0  0  0  0  0
    1.1879    0.0186    0.0000 C   0  0  3  0  0  0  0  0  0  0  0  0
   -1.7576   -2.2812    0.0000 C   0  0  0  0  0  0  0  0  0  0  0  0
   -1.0369   -0.2147    0.0000 C   0  0  2  0  0  0  0  0  0  0  0  0
   -0.3202    0.1936    0.0000 C   0  0  0  0  0  0  0  0  0  0  0  0
    1.6629   -0.6563    0.0000 C   0  0  1  0  0  0  0  0  0  0  0  0
   -2.4617   -1.0397    0.0000 C   0  0  0  0  0  0  0  0  0  0  0  0
    1.1671   -1.3188    0.0000 C   0  0  0  0  0  0  0  0  0  0  0  0
   -2.4617   -2.6896    0.0000 C   0  0  0  0  0  0  0  0  0  0  0  0
   -0.3328   -2.2812    0.0000 C   0  0  0  0  0  0  0  0  0  0  0  0
   -3.1743   -1.4562    0.0000 C   0  0  0  0  0  0  0  0  0  0  0  0
   -3.1743   -2.2812    0.0000 C   0  0  0  0  0  0  0  0  0  0  0  0
   -1.0452   -2.6937    0.0000 C   0  0  0  0  0  0  0  0  0  0  0  0
   -1.0452   -1.8688    0.0000 F   0  0  0  0  0  0  0  0  0  0  0  0
   -3.8952   -2.6937    0.0000 O   0  0  0  0  0  0  0  0  0  0  0  0
    1.9796    0.2353    0.0000 O   0  0  0  0  0  0  0  0  0  0  0  0
    0.3921    0.6061    0.0000 C   0  0  0  0  0  0  0  0  0  0  0  0
   -1.7494    0.2061    0.0000 O   0  0  0  0  0  0  0  0  0  0  0  0
   -1.7576   -0.6312    0.0000 C   0  0  0  0  0  0  0  0  0  0  0  0
    2.4879   -0.6688    0.0000 C   0  0  0  0  0  0  0  0  0  0  0  0
    0.3797   -1.8688    0.0000 H   0  0  0  0  0  0  0  0  0  0  0  0
   -0.3328   -0.6312    0.0000 H   0  0  0  0  0  0  0  0  0  0  0  0
    2.6692   -0.4469    0.0000 H   0  0  0  0  0  0  0  0  0  0  0  0
   -1.7398    1.1761    0.0000 H   0  0  0  0  0  0  0  0  0  0  0  0
  1  4  1  1  0  0  0
  1 21  1  0  0  0  0
  2  3  1  1  0  0  0
  2 18  1  0  0  0  0
  3 23  1  1  0  0  0
  4  5  1  1  0  0  0
  4 25  1  0  0  0  0
  5 26  1  0  0  0  0
  5  2  1  6  0  0  0
  6  1  1  0  0  0  0
  7  3  1  0  0  0  0
  8  2  1  1  0  0  0
  8  9  1  0  0  0  0
  8 22  1  0  0  0  0
  9  1  1  0  0  0  0
 10  6  1  0  0  0  0
 10 24  1  6  0  0  0
 10 12  1  0  0  0  0
 11  3  1  0  0  0  0
 12  4  1  0  0  0  0
 13  7  2  0  0  0  0
 14  5  1  0  0  0  0
 15 11  2  0  0  0  0
 16 15  1  0  0  0  0
 16 13  1  0  0  0  0
 17 14  1  0  0  0  0
 17  7  1  0  0  0  0
 19 16  2  0  0  0  0
 20  6  1  0  0  0  0
 20 27  1  0  0  0  0
 22 28  1  0  0  0  0
M  END
$$$$
Cc1ccc2c(c1O)cccc2
 OpenBabel07182308452D

 12 13  0  0  0  0  0  0  0  0999 V2000
    0.3271    0.8190    0.0000 C   0  0  0  0  0  0  0  0  0  0  0  0
    0.3367   -0.8335    0.0000 C   0  0  0  0  0  0  0  0  0  0  0  0
   -0.3803    0.4022    0.0000 C   0  0  0  0  0  0  0  0  0  0  0  0
   -0.3803   -0.4216    0.0000 C   0  0  0  0  0  0  0  0  0  0  0  0
    0.3222    1.6427    0.0000 O   0  0  0  0  0  0  0  0  0  0  0  0
    1.0443    0.4119    0.0000 C   0  0  0  0  0  0  0  0  0  0  0  0
    1.0491   -0.4167    0.0000 C   0  0  0  0  0  0  0  0  0  0  0  0
   -1.0927    0.8141    0.0000 C   0  0  0  0  0  0  0  0  0  0  0  0
    1.7567    0.8286    0.0000 C   0  0  0  0  0  0  0  0  0  0  0  0
   -1.0927   -0.8383    0.0000 C   0  0  0  0  0  0  0  0  0  0  0  0
   -1.8050    0.4022    0.0000 C   0  0  0  0  0  0  0  0  0  0  0  0
   -1.8050   -0.4264    0.0000 C   0  0  0  0  0  0  0  0  0  0  0  0
  1  5  1  0  0  0  0
  2  4  1  0  0  0  0
  3  1  1  0  0  0  0
  4  3  1  0  0  0  0
  6  1  2  0  0  0  0
  7  6  1  0  0  0  0
  7  2  2  0  0  0  0
  8  3  2  0  0  0  0
  9  6  1  0  0  0  0
 10  4  2  0  0  0  0
 11  8  1  0  0  0  0
 12 10  1  0  0  0  0
 12 11  2  0  0  0  0
M  END
$$$$
O=C1C[C@@H]2CC[C@@H]3[C@@H]([C@]2(C[C@H]1C)C)CC[C@]1([C@H]3CC[C@@H]1O)C
 OpenBabel07182308452D

 26 29  0  0  0  0  0  0  0  0999 V2000
    2.2933   -0.8465    0.0000 C   0  0  0  0  0  0  0  0  0  0  0  0
    0.7942   -1.8292    0.0000 C   0  0  0  0  0  0  0  0  0  0  0  0
    2.2933    0.4882    0.0000 C   0  0  1  0  0  0  0  0  0  0  0  0
    0.7942    0.6457    0.0000 C   0  0  0  0  0  0  0  0  0  0  0  0
    2.7782   -0.1792    0.0000 C   0  0  0  0  0  0  0  0  0  0  0  0
   -0.6347   -1.0042    0.0000 C   0  0  2  0  0  0  0  0  0  0  0  0
    0.0797    0.2332    0.0000 C   0  0  0  0  0  0  0  0  0  0  0  0
    0.0797   -2.2417    0.0000 C   0  0  0  0  0  0  0  0  0  0  0  0
   -0.6347   -1.8292    0.0000 C   0  0  1  0  0  0  0  0  0  0  0  0
   -1.3493   -0.5917    0.0000 C   0  0  0  0  0  0  0  0  0  0  0  0
   -1.3493   -2.2417    0.0000 C   0  0  0  0  0  0  0  0  0  0  0  0
   -2.0637   -1.0042    0.0000 C   0  0  2  0  0  0  0  0  0  0  0  0
    0.7942   -1.0042    0.0000 C   0  0  2  0  0  0  0  0  0  0  0  0
    0.7942   -0.1792    0.0000 H   0  0  0  0  0  0  0  0  0  0  0  0
    0.0797   -0.5917    0.0000 C   0  0  1  0  0  0  0  0  0  0  0  0
    0.0797   -1.4167    0.0000 H   0  0  0  0  0  0  0  0  0  0  0  0
    1.5087    0.2332    0.0000 C   0  0  2  0  0  0  0  0  0  0  0  0
    1.5087    1.0582    0.0000 C   0  0  0  0  0  0  0  0  0  0  0  0
    1.5087   -0.5917    0.0000 C   0  0  1  0  0  0  0  0  0  0  0  0
    1.5087   -1.4167    0.0000 H   0  0  0  0  0  0  0  0  0  0  0  0
   -2.7782   -2.2417    0.0000 O   0  0  0  0  0  0  0  0  0  0  0  0
   -2.0637   -1.8292    0.0000 C   0  0  0  0  0  0  0  0  0  0  0  0
   -0.6347   -0.1792    0.0000 C   0  0  0  0  0  0  0  0  0  0  0  0
    2.4648    1.2952    0.0000 O   0  0  0  0  0  0  0  0  0  0  0  0
   -2.7782   -0.5917    0.0000 C   0  0  0  0  0  0  0  0  0  0  0  0
   -0.6347   -2.6542    0.0000 H   0  0  0  0  0  0  0  0  0  0  0  0
  2  8  1  0  0  0  0
  3 17  1  1  0  0  0
  3  5  1  0  0  0  0
  3 24  1  0  0  0  0
  4  7  1  0  0  0  0
  5  1  1  0  0  0  0
  6 15  1  6  0  0  0
  6 10  1  0  0  0  0
  6 23  1  0  0  0  0
  8  9  1  0  0  0  0
  9  6  1  6  0  0  0
  9 11  1  0  0  0  0
  9 26  1  0  0  0  0
 10 12  1  0  0  0  0
 11 22  1  0  0  0  0
 12 22  1  0  0  0  0
 12 25  1  6  0  0  0
 13 19  1  6  0  0  0
 13  2  1  0  0  0  0
 13 14  1  0  0  0  0
 15 13  1  1  0  0  0
 15  7  1  0  0  0  0
 15 16  1  0  0  0  0
 17 19  1  1  0  0  0
 17  4  1  0  0  0  0
 17 18  1  0  0  0  0
 19  1  1  0  0  0  0
 19 20  1  6  0  0  0
 22 21  2  0  0  0  0
M  END
$$$$
O=C1C=C[C@]2(C(=C1)[C@@H](F)C[C@@H]1[C@@H]2[C@@H](O)C[C@]2([C@H]1C[C@H]([C@H]2O)C)C)C
 OpenBabel07182308452D

 29 32  0  0  0  0  0  0  0  0999 V2000
   -1.8264   -0.7480    0.0000 C   0  0  1  0  0  0  0  0  0  0  0  0
    0.3303    0.4760    0.0000 C   0  0  1  0  0  0  0  0  0  0  0  0
   -1.8264   -1.5690    0.0000 C   0  0  0  0  0  0  0  0  0  0  0  0
    0.3157   -0.3449    0.0000 C   0  0  2  0  0  0  0  0  0  0  0  0
    1.1172    0.7238    0.0000 C   0  0  1  0  0  0  0  0  0  0  0  0
   -0.3983   -0.7529    0.0000 C   0  0  1  0  0  0  0  0  0  0  0  0
   -1.1123   -0.3303    0.0000 C   0  0  2  0  0  0  0  0  0  0  0  0
   -2.5405   -0.3303    0.0000 C   0  0  0  0  0  0  0  0  0  0  0  0
   -0.3837    0.8987    0.0000 C   0  0  0  0  0  0  0  0  0  0  0  0
   -1.1026    0.4906    0.0000 C   0  0  2  0  0  0  0  0  0  0  0  0
    1.5933    0.0534    0.0000 C   0  0  1  0  0  0  0  0  0  0  0  0
    1.1026   -0.6072    0.0000 C   0  0  0  0  0  0  0  0  0  0  0  0
   -0.3983   -1.5787    0.0000 C   0  0  0  0  0  0  0  0  0  0  0  0
   -1.1123   -1.9867    0.0000 C   0  0  2  0  0  0  0  0  0  0  0  0
   -2.5405   -1.9867    0.0000 C   0  0  0  0  0  0  0  0  0  0  0  0
   -3.2450   -0.7480    0.0000 C   0  0  0  0  0  0  0  0  0  0  0  0
   -3.2450   -1.5690    0.0000 C   0  0  0  0  0  0  0  0  0  0  0  0
   -3.9687   -1.9771    0.0000 O   0  0  0  0  0  0  0  0  0  0  0  0
    1.8313    1.1415    0.0000 O   0  0  0  0  0  0  0  0  0  0  0  0
   -1.8264    0.0776    0.0000 C   0  0  0  0  0  0  0  0  0  0  0  0
    0.3254    1.3018    0.0000 C   0  0  0  0  0  0  0  0  0  0  0  0
   -1.1172   -2.8078    0.0000 F   0  0  0  0  0  0  0  0  0  0  0  0
   -1.8168    0.9083    0.0000 O   0  0  0  0  0  0  0  0  0  0  0  0
    2.4143    0.0485    0.0000 C   0  0  0  0  0  0  0  0  0  0  0  0
   -0.3983    0.0776    0.0000 H   0  0  0  0  0  0  0  0  0  0  0  0
    0.3157   -1.1706    0.0000 H   0  0  0  0  0  0  0  0  0  0  0  0
   -1.1123   -1.1610    0.0000 H   0  0  0  0  0  0  0  0  0  0  0  0
    2.6741    0.6613    0.0000 H   0  0  0  0  0  0  0  0  0  0  0  0
   -1.8114    1.8783    0.0000 H   0  0  0  0  0  0  0  0  0  0  0  0
  1  7  1  6  0  0  0
  1 20  1  0  0  0  0
  2  9  1  0  0  0  0
  2 21  1  0  0  0  0
  2  4  1  1  0  0  0
  3  1  1  0  0  0  0
  4  6  1  1  0  0  0
  4 26  1  0  0  0  0
  5  2  1  6  0  0  0
  5 19  1  0  0  0  0
  5 11  1  0  0  0  0
  6  7  1  6  0  0  0
  6 25  1  0  0  0  0
  7 27  1  6  0  0  0
  8  1  1  0  0  0  0
  9 10  1  0  0  0  0
 10  7  1  1  0  0  0
 10 23  1  0  0  0  0
 11 12  1  0  0  0  0
 11 24  1  6  0  0  0
 12  4  1  0  0  0  0
 13  6  1  0  0  0  0
 13 14  1  0  0  0  0
 14  3  1  0  0  0  0
 14 22  1  6  0  0  0
 15  3  2  0  0  0  0
 16  8  2  0  0  0  0
 17 16  1  0  0  0  0
 17 15  1  0  0  0  0
 18 17  2  0  0  0  0
 19 28  1  0  0  0  0
 23 29  1  0  0  0  0
M  END
$$$$
C[C@]12CCC[C@H]2[C@H]2[C@H](CC1)c1ccccc1CC2
 OpenBabel07182308452D

 21 24  0  0  0  0  0  0  0  0999 V2000
    2.8456    0.7538    0.0000 C   0  0  1  0  0  0  0  0  0  0  0  0
    2.8456   -0.0654    0.0000 C   0  0  2  0  0  0  0  0  0  0  0  0
    2.1135   -0.4823    0.0000 C   0  0  1  0  0  0  0  0  0  0  0  0
    1.4058   -0.0654    0.0000 C   0  0  1  0  0  0  0  0  0  0  0  0
    0.6641   -0.4823    0.0000 C   0  0  0  0  0  0  0  0  0  0  0  0
    3.6309    1.0156    0.0000 C   0  0  0  0  0  0  0  0  0  0  0  0
    0.6641   -1.3063    0.0000 C   0  0  0  0  0  0  0  0  0  0  0  0
    2.1135    1.1756    0.0000 C   0  0  0  0  0  0  0  0  0  0  0  0
    1.4058    0.7538    0.0000 C   0  0  0  0  0  0  0  0  0  0  0  0
    3.6309   -0.3126    0.0000 C   0  0  0  0  0  0  0  0  0  0  0  0
    2.1135   -1.3257    0.0000 C   0  0  0  0  0  0  0  0  0  0  0  0
   -0.0484   -0.0654    0.0000 C   0  0  0  0  0  0  0  0  0  0  0  0
   -0.0484   -1.7233    0.0000 C   0  0  0  0  0  0  0  0  0  0  0  0
   -0.7659   -1.3063    0.0000 C   0  0  0  0  0  0  0  0  0  0  0  0
    1.4058   -1.7233    0.0000 C   0  0  0  0  0  0  0  0  0  0  0  0
    4.0963    0.3563    0.0000 C   0  0  0  0  0  0  0  0  0  0  0  0
   -0.7659   -0.4726    0.0000 C   0  0  0  0  0  0  0  0  0  0  0  0
    2.8456    1.5827    0.0000 C   0  0  0  0  0  0  0  0  0  0  0  0
    1.4203   -0.8943    0.0000 H   0  0  0  0  0  0  0  0  0  0  0  0
    2.8456   -0.8604    0.0000 H   0  0  0  0  0  0  0  0  0  0  0  0
    2.1039    0.3563    0.0000 H   0  0  0  0  0  0  0  0  0  0  0  0
  1  2  1  1  0  0  0
  1 18  1  0  0  0  0
  2  3  1  1  0  0  0
  2 20  1  0  0  0  0
  3  4  1  6  0  0  0
  3 21  1  0  0  0  0
  4 19  1  6  0  0  0
  5  4  1  0  0  0  0
  6  1  1  0  0  0  0
  7  5  2  0  0  0  0
  8  1  1  0  0  0  0
  9  8  1  0  0  0  0
  9  4  1  0  0  0  0
 10  2  1  0  0  0  0
 10 16  1  0  0  0  0
 11  3  1  0  0  0  0
 12  5  1  0  0  0  0
 13  7  1  0  0  0  0
 13 14  2  0  0  0  0
 14 17  1  0  0  0  0
 15 11  1  0  0  0  0
 15  7  1  0  0  0  0
 16  6  1  0  0  0  0
 17 12  2  0  0  0  0
M  END
$$$$
O=C1CC[C@H]2C(=C1)CC[C@@H]1[C@@H]2CC[C@]2([C@H]1CCC2)C
 OpenBabel07182308452D

 23 26  0  0  0  0  0  0  0  0999 V2000
   -0.8195   -0.4660    0.0000 C   0  0  1  0  0  0  0  0  0  0  0  0
   -1.5367   -0.8588    0.0000 C   0  0  1  0  0  0  0  0  0  0  0  0
   -0.8195    0.3590    0.0000 C   0  0  1  0  0  0  0  0  0  0  0  0
   -0.0349   -0.7209    0.0000 C   0  0  0  0  0  0  0  0  0  0  0  0
   -2.2300   -0.4115    0.0000 C   0  0  1  0  0  0  0  0  0  0  0  0
   -1.5367   -1.6545    0.0000 C   0  0  0  0  0  0  0  0  0  0  0  0
   -0.0349    0.6139    0.0000 C   0  0  0  0  0  0  0  0  0  0  0  0
   -1.5128    0.7769    0.0000 C   0  0  0  0  0  0  0  0  0  0  0  0
   -0.8195    1.2687    0.0000 C   0  0  0  0  0  0  0  0  0  0  0  0
    0.4499   -0.0535    0.0000 C   0  0  0  0  0  0  0  0  0  0  0  0
   -2.9233   -0.8588    0.0000 C   0  0  2  0  0  0  0  0  0  0  0  0
   -2.2162    0.3295    0.0000 C   0  0  0  0  0  0  0  0  0  0  0  0
   -2.2162   -2.0951    0.0000 C   0  0  0  0  0  0  0  0  0  0  0  0
   -2.9233   -1.6545    0.0000 C   0  0  0  0  0  0  0  0  0  0  0  0
   -3.6199   -0.4115    0.0000 C   0  0  0  0  0  0  0  0  0  0  0  0
   -3.6164   -2.0951    0.0000 C   0  0  0  0  0  0  0  0  0  0  0  0
   -4.3338   -0.8588    0.0000 C   0  0  0  0  0  0  0  0  0  0  0  0
   -4.3338   -1.6545    0.0000 C   0  0  0  0  0  0  0  0  0  0  0  0
   -5.0269   -2.0951    0.0000 O   0  0  0  0  0  0  0  0  0  0  0  0
   -1.5367   -0.0337    0.0000 H   0  0  0  0  0  0  0  0  0  0  0  0
   -2.9233   -0.0337    0.0000 H   0  0  0  0  0  0  0  0  0  0  0  0
   -0.7885   -1.2891    0.0000 H   0  0  0  0  0  0  0  0  0  0  0  0
   -2.2300   -1.2366    0.0000 H   0  0  0  0  0  0  0  0  0  0  0  0
  1  2  1  1  0  0  0
  1  4  1  0  0  0  0
  1 22  1  0  0  0  0
  2  5  1  6  0  0  0
  2  6  1  0  0  0  0
  2 20  1  0  0  0  0
  3  1  1  1  0  0  0
  3  7  1  0  0  0  0
  3  8  1  0  0  0  0
  3  9  1  0  0  0  0
  4 10  1  0  0  0  0
  5 11  1  1  0  0  0
  5 12  1  0  0  0  0
  5 23  1  0  0  0  0
  6 13  1  0  0  0  0
  7 10  1  0  0  0  0
  8 12  1  0  0  0  0
 11 14  1  0  0  0  0
 11 15  1  0  0  0  0
 11 21  1  1  0  0  0
 13 14  1  0  0  0  0
 14 16  2  0  0  0  0
 15 17  1  0  0  0  0
 16 18  1  0  0  0  0
 17 18  1  0  0  0  0
 18 19  2  0  0  0  0
M  END
$$$$
[O-][V](=O)=O
 OpenBabel07182308452D

  4  3  0  0  0  0  0  0  0  0999 V2000
    0.0000    0.6040    0.0000 V   0  0  0  0  0  0  0  0  0  0  0  0
    0.7145    1.0166    0.0000 O   0  0  0  0  0  0  0  0  0  0  0  0
   -0.7145    1.0166    0.0000 O   0  0  0  0  0  0  0  0  0  0  0  0
    0.0000   -0.2209    0.0000 O   0  5  0  0  0  0  0  0  0  0  0  0
  1  2  2  0  0  0  0
  1  3  2  0  0  0  0
  1  4  1  0  0  0  0
M  CHG  1   4  -1
M  END
$$$$
O[C@@H]1CNCC1
 OpenBabel07182308452D

  7  7  0  0  0  0  0  0  0  0999 V2000
   -2.3090    1.1936    0.0000 C   0  0  0  0  0  0  0  0  0  0  0  0
   -3.0008    0.7443    0.0000 C   0  0  1  0  0  0  0  0  0  0  0  0
   -2.7873   -0.0525    0.0000 C   0  0  0  0  0  0  0  0  0  0  0  0
   -1.9634   -0.0956    0.0000 N   0  0  0  0  0  0  0  0  0  0  0  0
   -1.6678    0.6744    0.0000 C   0  0  0  0  0  0  0  0  0  0  0  0
   -3.7359    1.1188    0.0000 O   0  0  0  0  0  0  0  0  0  0  0  0
   -3.7867    2.0875    0.0000 H   0  0  0  0  0  0  0  0  0  0  0  0
  1  2  1  0  0  0  0
  1  5  1  0  0  0  0
  2  3  1  0  0  0  0
  2  6  1  1  0  0  0
  3  4  1  0  0  0  0
  4  5  1  0  0  0  0
  6  7  1  0  0  0  0
M  END
$$$$
c1ccn2c(n1)ccn2
 OpenBabel07182308452D

  9 10  0  0  0  0  0  0  0  0999 V2000
   -0.2409   -1.4362    0.0000 C   0  0  0  0  0  0  0  0  0  0  0  0
    0.5829   -1.4794    0.0000 C   0  0  0  0  0  0  0  0  0  0  0  0
   -0.5365   -2.2064    0.0000 C   0  0  0  0  0  0  0  0  0  0  0  0
    0.1045   -2.7256    0.0000 N   0  0  0  0  0  0  0  0  0  0  0  0
    0.7964   -2.2763    0.0000 N   0  0  0  0  0  0  0  0  0  0  0  0
    1.9631   -1.1096    0.0000 C   0  0  0  0  0  0  0  0  0  0  0  0
    1.1662   -0.8961    0.0000 N   0  0  0  0  0  0  0  0  0  0  0  0
    1.5933   -2.4898    0.0000 C   0  0  0  0  0  0  0  0  0  0  0  0
    2.1766   -1.9065    0.0000 C   0  0  0  0  0  0  0  0  0  0  0  0
  1  3  1  0  0  0  0
  2  5  1  0  0  0  0
  2  1  2  0  0  0  0
  3  4  2  0  0  0  0
  4  5  1  0  0  0  0
  5  8  1  0  0  0  0
  6  7  2  0  0  0  0
  6  9  1  0  0  0  0
  7  2  1  0  0  0  0
  8  9  2  0  0  0  0
M  END
$$$$
O=C1NCCCC(=O)N[C@H](C)C(=O)N[C@H](C)C(=O)N[C@H](C(=O)N[C@H](C(=O)N[C@H](C(=O)NC1)C)C)C
 OpenBabel07182308452D

 43 43  0  0  0  0  0  0  0  0999 V2000
    6.8044   -2.0573    0.0000 N   0  0  0  0  0  0  0  0  0  0  0  0
    6.0896   -2.4673    0.0000 C   0  0  0  0  0  0  0  0  0  0  0  0
    6.7945    1.2274    0.0000 N   0  0  0  0  0  0  0  0  0  0  0  0
    4.6646    1.6424    0.0000 N   0  0  0  0  0  0  0  0  0  0  0  0
    8.2143    0.4125    0.0000 N   0  0  0  0  0  0  0  0  0  0  0  0
    7.5094   -2.4673    0.0000 C   0  0  0  0  0  0  0  0  0  0  0  0
    8.2194   -1.2323    0.0000 N   0  0  0  0  0  0  0  0  0  0  0  0
    2.5298    1.1975    0.0000 N   0  0  0  0  0  0  0  0  0  0  0  0
    6.0896    1.6424    0.0000 C   0  0  0  0  0  0  0  0  0  0  0  0
    8.2194    1.2374    0.0000 C   0  0  0  0  0  0  0  0  0  0  0  0
    3.9447    1.2223    0.0000 C   0  0  0  0  0  0  0  0  0  0  0  0
    8.9243   -0.8173    0.0000 C   0  0  0  0  0  0  0  0  0  0  0  0
    2.5198    0.3824    0.0000 C   0  0  0  0  0  0  0  0  0  0  0  0
    5.2745   -2.4622    0.0000 C   0  0  0  0  0  0  0  0  0  0  0  0
    5.3796    1.2223    0.0000 C   0  0  1  0  0  0  0  0  0  0  0  0
    7.5094    1.6424    0.0000 C   0  0  2  0  0  0  0  0  0  0  0  0
    8.2194   -2.0473    0.0000 C   0  0  1  0  0  0  0  0  0  0  0  0
    3.2397    1.6273    0.0000 C   0  0  1  0  0  0  0  0  0  0  0  0
    8.9243    0.0075    0.0000 C   0  0  2  0  0  0  0  0  0  0  0  0
    1.7998   -0.0225    0.0000 C   0  0  0  0  0  0  0  0  0  0  0  0
    4.8545   -3.1722    0.0000 N   0  0  0  0  0  0  0  0  0  0  0  0
    7.5094   -3.2923    0.0000 O   0  0  0  0  0  0  0  0  0  0  0  0
    8.9343    1.6424    0.0000 O   0  0  0  0  0  0  0  0  0  0  0  0
    6.0896    2.4673    0.0000 O   0  0  0  0  0  0  0  0  0  0  0  0
    3.9597    0.3974    0.0000 O   0  0  0  0  0  0  0  0  0  0  0  0
    9.6443   -1.2323    0.0000 O   0  0  0  0  0  0  0  0  0  0  0  0
    3.2347   -0.0375    0.0000 O   0  0  0  0  0  0  0  0  0  0  0  0
    5.3796    0.3974    0.0000 C   0  0  0  0  0  0  0  0  0  0  0  0
    4.8596   -1.7423    0.0000 O   0  0  0  0  0  0  0  0  0  0  0  0
    7.4995    2.4673    0.0000 C   0  0  0  0  0  0  0  0  0  0  0  0
    1.7848   -0.8474    0.0000 C   0  0  0  0  0  0  0  0  0  0  0  0
    4.0296   -3.1722    0.0000 C   0  0  0  0  0  0  0  0  0  0  0  0
    8.9394   -2.4673    0.0000 C   0  0  0  0  0  0  0  0  0  0  0  0
    9.6443    0.4125    0.0000 C   0  0  0  0  0  0  0  0  0  0  0  0
    3.2247    2.4522    0.0000 C   0  0  0  0  0  0  0  0  0  0  0  0
    7.1279   -3.0687    0.0000 H   0  0  0  0  0  0  0  0  0  0  0  0
    6.8073   -1.0728    0.0000 H   0  0  0  0  0  0  0  0  0  0  0  0
    6.7915    0.2429    0.0000 H   0  0  0  0  0  0  0  0  0  0  0  0
    4.6661    2.6269    0.0000 H   0  0  0  0  0  0  0  0  0  0  0  0
    7.3615   -0.0793    0.0000 H   0  0  0  0  0  0  0  0  0  0  0  0
    7.3647   -0.7437    0.0000 H   0  0  0  0  0  0  0  0  0  0  0  0
    1.6751    1.6861    0.0000 H   0  0  0  0  0  0  0  0  0  0  0  0
    5.3422   -4.0274    0.0000 H   0  0  0  0  0  0  0  0  0  0  0  0
  1 37  1  0  0  0  0
  2  1  1  0  0  0  0
  2 36  1  0  0  0  0
  3 16  1  0  0  0  0
  3 38  1  0  0  0  0
  4 11  1  0  0  0  0
  4 15  1  0  0  0  0
  4 39  1  0  0  0  0
  5 19  1  0  0  0  0
  5 40  1  0  0  0  0
  6  1  1  0  0  0  0
  7 17  1  0  0  0  0
  7 41  1  0  0  0  0
  8 13  1  0  0  0  0
  8 42  1  0  0  0  0
  9  3  1  0  0  0  0
 10  5  1  0  0  0  0
 11 18  1  0  0  0  0
 12  7  1  0  0  0  0
 13 20  1  0  0  0  0
 14  2  1  0  0  0  0
 15  9  1  0  0  0  0
 15 28  1  1  0  0  0
 16 10  1  0  0  0  0
 16 30  1  1  0  0  0
 17  6  1  0  0  0  0
 17 33  1  1  0  0  0
 18  8  1  0  0  0  0
 18 35  1  6  0  0  0
 19 12  1  0  0  0  0
 19 34  1  1  0  0  0
 20 31  1  0  0  0  0
 21 14  1  0  0  0  0
 21 43  1  0  0  0  0
 22  6  2  0  0  0  0
 23 10  2  0  0  0  0
 24  9  2  0  0  0  0
 25 11  2  0  0  0  0
 26 12  2  0  0  0  0
 27 13  2  0  0  0  0
 29 14  2  0  0  0  0
 31 32  1  0  0  0  0
 32 21  1  0  0  0  0
M  END
$$$$
N#C[C@H]1OC[C@H]([C@H]1O)O
 OpenBabel07182308452D

 11 11  0  0  0  0  0  0  0  0999 V2000
    3.8883   -0.9076    0.0000 C   0  0  1  0  0  0  0  0  0  0  0  0
    3.1772   -0.4056    0.0000 O   0  0  0  0  0  0  0  0  0  0  0  0
    3.5954   -1.7442    0.0000 C   0  0  1  0  0  0  0  0  0  0  0  0
    2.5078   -0.9076    0.0000 C   0  0  0  0  0  0  0  0  0  0  0  0
    2.7589   -1.7442    0.0000 C   0  0  1  0  0  0  0  0  0  0  0  0
    4.1393   -2.4134    0.0000 O   0  0  0  0  0  0  0  0  0  0  0  0
    2.2987   -2.4134    0.0000 O   0  0  0  0  0  0  0  0  0  0  0  0
    4.5993   -1.3259    0.0000 C   0  0  0  0  0  0  0  0  0  0  0  0
    5.3523   -1.7442    0.0000 N   0  0  0  0  0  0  0  0  0  0  0  0
    3.7933   -3.3196    0.0000 H   0  0  0  0  0  0  0  0  0  0  0  0
    1.3317   -2.3370    0.0000 H   0  0  0  0  0  0  0  0  0  0  0  0
  1  2  1  0  0  0  0
  1  3  1  0  0  0  0
  1  8  1  6  0  0  0
  2  4  1  0  0  0  0
  3  5  1  0  0  0  0
  3  6  1  6  0  0  0
  4  5  1  0  0  0  0
  5  7  1  6  0  0  0
  6 10  1  0  0  0  0
  7 11  1  0  0  0  0
  8  9  3  0  0  0  0
M  END
$$$$
NP(=O)O
 OpenBabel07182308452D

  5  4  0  0  0  0  0  0  0  0999 V2000
    0.3577   -0.4952    0.0000 P   0  0  3  0  0  0  0  0  0  0  0  0
   -0.3667   -0.9135    0.0000 N   0  0  0  0  0  0  0  0  0  0  0  0
   -0.0575    0.2174    0.0000 O   0  0  0  0  0  0  0  0  0  0  0  0
    0.7673    0.2209    0.0000 O   0  0  0  0  0  0  0  0  0  0  0  0
   -0.3667   -1.9335    0.0000 H   0  0  0  0  0  0  0  0  0  0  0  0
  1  2  1  0  0  0  0
  1  3  1  0  0  0  0
  1  4  2  0  0  0  0
  2  5  1  0  0  0  0
M  END
$$$$
Nc1ncnn2c1ccc2
 OpenBabel07182308452D

 12 13  0  0  0  0  0  0  0  0999 V2000
    4.3365   -0.2132    0.0000 C   0  0  0  0  0  0  0  0  0  0  0  0
    4.0386    0.5562    0.0000 N   0  0  0  0  0  0  0  0  0  0  0  0
    5.1602   -0.1677    0.0000 C   0  0  0  0  0  0  0  0  0  0  0  0
    4.6785    1.0770    0.0000 C   0  0  0  0  0  0  0  0  0  0  0  0
    5.3716    0.6297    0.0000 C   0  0  0  0  0  0  0  0  0  0  0  0
    3.2677    0.8496    0.0000 N   0  0  0  0  0  0  0  0  0  0  0  0
    3.1365    1.6641    0.0000 C   0  0  0  0  0  0  0  0  0  0  0  0
    4.5471    1.8915    0.0000 C   0  0  0  0  0  0  0  0  0  0  0  0
    3.7761    2.1850    0.0000 N   0  0  0  0  0  0  0  0  0  0  0  0
    5.1880    2.4134    0.0000 N   0  0  0  0  0  0  0  0  0  0  0  0
    6.1081    2.0631    0.0000 H   0  0  0  0  0  0  0  0  0  0  0  0
    5.0313    3.3854    0.0000 H   0  0  0  0  0  0  0  0  0  0  0  0
  1  2  1  0  0  0  0
  1  3  2  0  0  0  0
  2  6  1  0  0  0  0
  2  4  1  0  0  0  0
  3  5  1  0  0  0  0
  4  5  2  0  0  0  0
  4  8  1  0  0  0  0
  6  7  2  0  0  0  0
  7  9  1  0  0  0  0
  8  9  2  0  0  0  0
  8 10  1  0  0  0  0
 10 11  1  0  0  0  0
 10 12  1  0  0  0  0
M  END
$$$$
NC1=NC(=NC(N1)(C)C)N
 OpenBabel07182308452D

 14 14  0  0  0  0  0  0  0  0999 V2000
    0.6594   -1.6499    0.0000 N   0  0  0  0  0  0  0  0  0  0  0  0
   -0.0550   -2.0624    0.0000 C   0  0  0  0  0  0  0  0  0  0  0  0
   -0.7695   -1.6499    0.0000 N   0  0  0  0  0  0  0  0  0  0  0  0
   -0.7695   -0.8250    0.0000 C   0  0  0  0  0  0  0  0  0  0  0  0
   -0.0550   -0.4125    0.0000 N   0  0  0  0  0  0  0  0  0  0  0  0
    0.6593   -0.8249    0.0000 C   0  0  0  0  0  0  0  0  0  0  0  0
   -0.0550   -2.8874    0.0000 N   0  0  0  0  0  0  0  0  0  0  0  0
   -1.4839   -0.4124    0.0000 N   0  0  0  0  0  0  0  0  0  0  0  0
    1.0965   -0.1253    0.0000 C   0  0  0  0  0  0  0  0  0  0  0  0
    1.4839   -0.7962    0.0000 C   0  0  0  0  0  0  0  0  0  0  0  0
   -0.9076   -3.3796    0.0000 H   0  0  0  0  0  0  0  0  0  0  0  0
    0.7976   -3.3796    0.0000 H   0  0  0  0  0  0  0  0  0  0  0  0
   -1.4838    0.5721    0.0000 H   0  0  0  0  0  0  0  0  0  0  0  0
   -2.3366   -0.9045    0.0000 H   0  0  0  0  0  0  0  0  0  0  0  0
  2  1  2  0  0  0  0
  2  3  1  0  0  0  0
  2  7  1  0  0  0  0
  4  3  2  0  0  0  0
  4  8  1  0  0  0  0
  4  5  1  0  0  0  0
  6  1  1  0  0  0  0
  6  5  1  0  0  0  0
  6  9  1  0  0  0  0
  7 11  1  0  0  0  0
  7 12  1  0  0  0  0
  8 13  1  0  0  0  0
  8 14  1  0  0  0  0
 10  6  1  0  0  0  0
M  END
$$$$
O=C1CCC(=O)N1
 OpenBabel07182308452D

  7  7  0  0  0  0  0  0  0  0999 V2000
    2.8859   -2.0248    0.0000 N   0  0  0  0  0  0  0  0  0  0  0  0
    2.9721   -1.2043    0.0000 C   0  0  0  0  0  0  0  0  0  0  0  0
    2.3590   -0.6523    0.0000 O   0  0  0  0  0  0  0  0  0  0  0  0
    3.7791   -1.0328    0.0000 C   0  0  0  0  0  0  0  0  0  0  0  0
    4.1916   -1.7472    0.0000 C   0  0  0  0  0  0  0  0  0  0  0  0
    3.6396   -2.3603    0.0000 C   0  0  0  0  0  0  0  0  0  0  0  0
    3.8111   -3.1673    0.0000 O   0  0  0  0  0  0  0  0  0  0  0  0
  1  2  1  0  0  0  0
  1  6  1  0  0  0  0
  2  3  2  0  0  0  0
  2  4  1  0  0  0  0
  4  5  1  0  0  0  0
  5  6  1  0  0  0  0
  6  7  2  0  0  0  0
M  END
$$$$
[18F]c1ccccn1
 OpenBabel07182308452D

  7  7  0  0  1  0  0  0  0  0999 V2000
   14.2894   -9.0750    0.0000 C   0  0  0  0  0  0  0  0  0  0  0  0
   15.0039   -8.6625    0.0000 C   0  0  0  0  0  0  0  0  0  0  0  0
   15.7184   -9.0750    0.0000 C   0  0  0  0  0  0  0  0  0  0  0  0
   15.7184   -9.9000    0.0000 C   0  0  0  0  0  0  0  0  0  0  0  0
   16.4328  -10.3125    0.0000 F   0  0  0  0  0  0  0  0  0  0  0  0
   15.0039  -10.3125    0.0000 N   0  0  0  0  0  0  0  0  0  0  0  0
   14.2894   -9.9000    0.0000 C   0  0  0  0  0  0  0  0  0  0  0  0
  1  2  2  0  0  0  0
  1  7  1  0  0  0  0
  2  3  1  0  0  0  0
  3  4  2  0  0  0  0
  4  5  1  0  0  0  0
  4  6  1  0  0  0  0
  6  7  2  0  0  0  0
M  ISO  1   5  18
M  END
$$$$
O=c1ccc2c([nH]1)ccnc2
 OpenBabel07182308452D

 11 12  0  0  0  0  0  0  0  0999 V2000
    1.4339    0.4123    0.0000 C   0  0  0  0  0  0  0  0  0  0  0  0
    1.4288   -0.4175    0.0000 C   0  0  0  0  0  0  0  0  0  0  0  0
    2.1396   -0.8291    0.0000 N   0  0  0  0  0  0  0  0  0  0  0  0
    2.1417    0.8227    0.0000 C   0  0  0  0  0  0  0  0  0  0  0  0
    2.8570    0.4065    0.0000 C   0  0  0  0  0  0  0  0  0  0  0  0
    2.8551   -0.4204    0.0000 C   0  0  0  0  0  0  0  0  0  0  0  0
    3.5663   -0.8333    0.0000 C   0  0  0  0  0  0  0  0  0  0  0  0
    4.2842   -0.4238    0.0000 C   0  0  0  0  0  0  0  0  0  0  0  0
    4.2862    0.4031    0.0000 N   0  0  0  0  0  0  0  0  0  0  0  0
    3.5703    0.8206    0.0000 C   0  0  0  0  0  0  0  0  0  0  0  0
    0.7128   -0.8273    0.0000 O   0  0  0  0  0  0  0  0  0  0  0  0
  1  2  1  0  0  0  0
  1  4  2  0  0  0  0
  2  3  1  0  0  0  0
  2 11  2  0  0  0  0
  3  6  1  0  0  0  0
  5  4  1  0  0  0  0
  5  6  2  0  0  0  0
  5 10  1  0  0  0  0
  6  7  1  0  0  0  0
  7  8  2  0  0  0  0
  8  9  1  0  0  0  0
  9 10  2  0  0  0  0
M  END
$$$$
O=S1(=O)CCNCC1
 OpenBabel07182308452D

  8  8  0  0  0  0  0  0  0  0999 V2000
    0.6411   -5.2354    0.0000 N   0  0  0  0  0  0  0  0  0  0  0  0
    0.6411   -6.0604    0.0000 C   0  0  0  0  0  0  0  0  0  0  0  0
   -0.0734   -6.4729    0.0000 C   0  0  0  0  0  0  0  0  0  0  0  0
   -0.7878   -6.0604    0.0000 S   0  0  0  0  0  0  0  0  0  0  0  0
   -1.0700   -6.8357    0.0000 O   0  0  0  0  0  0  0  0  0  0  0  0
   -1.6003   -5.9172    0.0000 O   0  0  0  0  0  0  0  0  0  0  0  0
   -0.7878   -5.2354    0.0000 C   0  0  0  0  0  0  0  0  0  0  0  0
   -0.0734   -4.8229    0.0000 C   0  0  0  0  0  0  0  0  0  0  0  0
  1  2  1  0  0  0  0
  1  8  1  0  0  0  0
  2  3  1  0  0  0  0
  3  4  1  0  0  0  0
  4  5  2  0  0  0  0
  4  6  2  0  0  0  0
  4  7  1  0  0  0  0
  7  8  1  0  0  0  0
M  END
$$$$
Oc1c(O)cccc1Cl
 OpenBabel07182308452D

 11 11  0  0  0  0  0  0  0  0999 V2000
    4.7526   -2.1930    0.0000 C   0  0  0  0  0  0  0  0  0  0  0  0
    4.2677   -2.8606    0.0000 C   0  0  0  0  0  0  0  0  0  0  0  0
    4.6033   -3.6142    0.0000 C   0  0  0  0  0  0  0  0  0  0  0  0
    5.4236   -3.7005    0.0000 C   0  0  0  0  0  0  0  0  0  0  0  0
    5.7593   -4.4542    0.0000 O   0  0  0  0  0  0  0  0  0  0  0  0
    5.9087   -3.0330    0.0000 C   0  0  0  0  0  0  0  0  0  0  0  0
    6.7290   -3.1192    0.0000 O   0  0  0  0  0  0  0  0  0  0  0  0
    5.5731   -2.2794    0.0000 C   0  0  0  0  0  0  0  0  0  0  0  0
    6.0580   -1.6118    0.0000 Cl  0  0  0  0  0  0  0  0  0  0  0  0
    5.2087   -5.2123    0.0000 H   0  0  0  0  0  0  0  0  0  0  0  0
    7.1101   -3.9752    0.0000 H   0  0  0  0  0  0  0  0  0  0  0  0
  1  2  1  0  0  0  0
  1  8  2  0  0  0  0
  2  3  2  0  0  0  0
  3  4  1  0  0  0  0
  4  5  1  0  0  0  0
  5 10  1  0  0  0  0
  6  4  2  0  0  0  0
  6  7  1  0  0  0  0
  7 11  1  0  0  0  0
  8  6  1  0  0  0  0
  8  9  1  0  0  0  0
M  END
$$$$
C[C@H]1CCOC2(C1)CCCC2
 OpenBabel07182308452D

 11 12  0  0  0  0  0  0  0  0999 V2000
    0.4327   -1.7517    0.0000 C   0  0  0  0  0  0  0  0  0  0  0  0
    0.8421   -2.4661    0.0000 C   0  0  0  0  0  0  0  0  0  0  0  0
    1.6482   -2.2975    0.0000 C   0  0  0  0  0  0  0  0  0  0  0  0
    1.7368   -1.4789    0.0000 C   0  0  0  0  0  0  0  0  0  0  0  0
    0.9857   -1.1416    0.0000 C   0  0  0  0  0  0  0  0  0  0  0  0
   -1.2112   -1.7435    0.0000 C   0  0  0  0  0  0  0  0  0  0  0  0
   -0.8018   -2.4580    0.0000 C   0  0  0  0  0  0  0  0  0  0  0  0
    0.0169   -2.4606    0.0000 O   0  0  0  0  0  0  0  0  0  0  0  0
    0.0232   -1.0361    0.0000 C   0  0  0  0  0  0  0  0  0  0  0  0
   -0.8018   -1.0318    0.0000 C   0  0  1  0  0  0  0  0  0  0  0  0
   -0.8061   -0.2020    0.0000 C   0  0  0  0  0  0  0  0  0  0  0  0
  1  9  1  0  0  0  0
  1  2  1  0  0  0  0
  2  3  1  0  0  0  0
  3  4  1  0  0  0  0
  4  5  1  0  0  0  0
  5  1  1  0  0  0  0
  6 10  1  0  0  0  0
  6  7  1  0  0  0  0
  7  8  1  0  0  0  0
  8  1  1  0  0  0  0
  9 10  1  0  0  0  0
 10 11  1  6  0  0  0
M  END
$$$$
O=c1ccnc2n1CCC2
 OpenBabel07182308452D

 10 11  0  0  0  0  0  0  0  0999 V2000
   -2.8107    1.2385    0.0000 C   0  0  0  0  0  0  0  0  0  0  0  0
   -4.2416    1.2385    0.0000 N   0  0  0  0  0  0  0  0  0  0  0  0
   -4.2416    2.0635    0.0000 C   0  0  0  0  0  0  0  0  0  0  0  0
   -3.5251    2.4750    0.0000 C   0  0  0  0  0  0  0  0  0  0  0  0
   -2.8107    2.0635    0.0000 C   0  0  0  0  0  0  0  0  0  0  0  0
   -4.9540    2.4750    0.0000 N   0  0  0  0  0  0  0  0  0  0  0  0
   -5.6706    2.0635    0.0000 C   0  0  0  0  0  0  0  0  0  0  0  0
   -5.6706    1.2385    0.0000 C   0  0  0  0  0  0  0  0  0  0  0  0
   -4.9540    0.8250    0.0000 C   0  0  0  0  0  0  0  0  0  0  0  0
   -4.9540    0.0000    0.0000 O   0  0  0  0  0  0  0  0  0  0  0  0
  1  2  1  0  0  0  0
  1  5  1  0  0  0  0
  2  3  1  0  0  0  0
  2  9  1  0  0  0  0
  3  4  1  0  0  0  0
  3  6  2  0  0  0  0
  5  4  1  0  0  0  0
  6  7  1  0  0  0  0
  8  7  2  0  0  0  0
  9  8  1  0  0  0  0
  9 10  2  0  0  0  0
M  END
$$$$
c1ccc2c(c1)[nH]c1c2cncc1
 OpenBabel07182308452D

 14 16  0  0  0  0  0  0  0  0999 V2000
    3.9604    0.5840    0.0000 C   0  0  0  0  0  0  0  0  0  0  0  0
    3.7054   -0.2006    0.0000 C   0  0  0  0  0  0  0  0  0  0  0  0
    2.8985   -0.3721    0.0000 C   0  0  0  0  0  0  0  0  0  0  0  0
    2.3464    0.2410    0.0000 C   0  0  0  0  0  0  0  0  0  0  0  0
    2.6014    1.0256    0.0000 C   0  0  0  0  0  0  0  0  0  0  0  0
    1.9339    1.5105    0.0000 N   0  0  0  0  0  0  0  0  0  0  0  0
    1.2665    1.0256    0.0000 C   0  0  0  0  0  0  0  0  0  0  0  0
    1.5214    0.2410    0.0000 C   0  0  0  0  0  0  0  0  0  0  0  0
    0.9694   -0.3721    0.0000 C   0  0  0  0  0  0  0  0  0  0  0  0
    0.1624   -0.2006    0.0000 N   0  0  0  0  0  0  0  0  0  0  0  0
   -0.0925    0.5840    0.0000 C   0  0  0  0  0  0  0  0  0  0  0  0
    0.4595    1.1971    0.0000 C   0  0  0  0  0  0  0  0  0  0  0  0
    3.4084    1.1971    0.0000 C   0  0  0  0  0  0  0  0  0  0  0  0
    1.9339    2.4950    0.0000 H   0  0  0  0  0  0  0  0  0  0  0  0
  1  2  2  0  0  0  0
  1 13  1  0  0  0  0
  2  3  1  0  0  0  0
  3  4  2  0  0  0  0
  4  5  1  0  0  0  0
  4  8  1  0  0  0  0
  5  6  1  0  0  0  0
  5 13  2  0  0  0  0
  6  7  1  0  0  0  0
  6 14  1  0  0  0  0
  7  8  2  0  0  0  0
  7 12  1  0  0  0  0
  8  9  1  0  0  0  0
  9 10  2  0  0  0  0
 10 11  1  0  0  0  0
 11 12  2  0  0  0  0
M  END
$$$$
Nc1cc(=O)[nH]c(=O)[nH]1
 OpenBabel07182308452D

 11 11  0  0  1  0  0  0  0  0999 V2000
    1.4289   -2.4750    0.0000 N   0  0  0  0  0  0  0  0  0  0  0  0
    2.1434   -2.8875    0.0000 C   0  0  0  0  0  0  0  0  0  0  0  0
    2.8579   -2.4750    0.0000 O   0  0  0  0  0  0  0  0  0  0  0  0
    2.1434   -3.7125    0.0000 N   0  0  0  0  0  0  0  0  0  0  0  0
    1.4289   -4.1250    0.0000 C   0  0  0  0  0  0  0  0  0  0  0  0
    1.4289   -4.9500    0.0000 N   0  0  0  0  0  0  0  0  0  0  0  0
    0.7145   -3.7125    0.0000 C   0  0  0  0  0  0  0  0  0  0  0  0
    0.7145   -2.8875    0.0000 C   0  0  0  0  0  0  0  0  0  0  0  0
    0.0000   -2.4750    0.0000 O   0  0  0  0  0  0  0  0  0  0  0  0
    2.9960   -4.2048    0.0000 H   0  0  0  0  0  0  0  0  0  0  0  0
    0.5763   -5.4423    0.0000 H   0  0  0  0  0  0  0  0  0  0  0  0
  1  2  1  0  0  0  0
  1  8  1  0  0  0  0
  2  3  2  0  0  0  0
  2  4  1  0  0  0  0
  4  5  1  0  0  0  0
  4 10  1  0  0  0  0
  5  6  1  0  0  0  0
  5  7  2  0  0  0  0
  6 11  1  0  0  0  0
  7  8  1  0  0  0  0
  8  9  2  0  0  0  0
M  END
$$$$
Fc1ccc2c(c1)c(=O)cco2
 OpenBabel07182308452D

 12 13  0  0  1  0  0  0  0  0999 V2000
    2.9013   -2.5102    0.0000 C   0  0  0  0  0  0  0  0  0  0  0  0
    2.6464   -3.2948    0.0000 C   0  0  0  0  0  0  0  0  0  0  0  0
    1.8394   -3.4663    0.0000 C   0  0  0  0  0  0  0  0  0  0  0  0
    1.5845   -4.2510    0.0000 O   0  0  0  0  0  0  0  0  0  0  0  0
    1.2874   -2.8532    0.0000 C   0  0  0  0  0  0  0  0  0  0  0  0
    0.4804   -3.0248    0.0000 C   0  0  0  0  0  0  0  0  0  0  0  0
   -0.0716   -2.4117    0.0000 C   0  0  0  0  0  0  0  0  0  0  0  0
   -0.8786   -2.5832    0.0000 F   0  0  0  0  0  0  0  0  0  0  0  0
    0.1833   -1.6271    0.0000 C   0  0  0  0  0  0  0  0  0  0  0  0
    0.9903   -1.4555    0.0000 C   0  0  0  0  0  0  0  0  0  0  0  0
    1.5423   -2.0686    0.0000 C   0  0  0  0  0  0  0  0  0  0  0  0
    2.3493   -1.8971    0.0000 O   0  0  0  0  0  0  0  0  0  0  0  0
  1  2  2  0  0  0  0
  1 12  1  0  0  0  0
  2  3  1  0  0  0  0
  3  4  2  0  0  0  0
  3  5  1  0  0  0  0
  5  6  2  0  0  0  0
  5 11  1  0  0  0  0
  6  7  1  0  0  0  0
  7  8  1  0  0  0  0
  7  9  2  0  0  0  0
  9 10  1  0  0  0  0
 10 11  2  0  0  0  0
 11 12  1  0  0  0  0
M  END
$$$$
Clc1ccc2c(c1C)nc[nH]2
 OpenBabel07182308452D

 12 13  0  0  1  0  0  0  0  0999 V2000
   -0.6284   -0.6979    0.0000 C   0  0  0  0  0  0  0  0  0  0  0  0
   -0.1435   -1.3654    0.0000 N   0  0  0  0  0  0  0  0  0  0  0  0
    0.6411   -1.1104    0.0000 C   0  0  0  0  0  0  0  0  0  0  0  0
    0.6411   -0.2854    0.0000 C   0  0  0  0  0  0  0  0  0  0  0  0
   -0.1435   -0.0305    0.0000 N   0  0  0  0  0  0  0  0  0  0  0  0
    1.3556    0.1271    0.0000 C   0  0  0  0  0  0  0  0  0  0  0  0
    2.0701   -0.2854    0.0000 C   0  0  0  0  0  0  0  0  0  0  0  0
    2.0701   -1.1104    0.0000 C   0  0  0  0  0  0  0  0  0  0  0  0
    2.7845   -1.5229    0.0000 Cl  0  0  0  0  0  0  0  0  0  0  0  0
    1.3556   -1.5229    0.0000 C   0  0  0  0  0  0  0  0  0  0  0  0
    1.3556   -2.3479    0.0000 C   0  0  0  0  0  0  0  0  0  0  0  0
   -0.4477    0.9058    0.0000 H   0  0  0  0  0  0  0  0  0  0  0  0
  1  2  2  0  0  0  0
  1  5  1  0  0  0  0
  2  3  1  0  0  0  0
  3  4  2  0  0  0  0
  3 10  1  0  0  0  0
  4  5  1  0  0  0  0
  4  6  1  0  0  0  0
  5 12  1  0  0  0  0
  6  7  2  0  0  0  0
  7  8  1  0  0  0  0
  8  9  1  0  0  0  0
  8 10  2  0  0  0  0
 10 11  1  0  0  0  0
M  END
$$$$
C1CCn2c(N1)ccn2
 OpenBabel07182308452D

 10 11  0  0  0  0  0  0  0  0999 V2000
   -1.6574   -1.1249    0.0000 C   0  0  0  0  0  0  0  0  0  0  0  0
   -2.3245   -1.6095    0.0000 C   0  0  0  0  0  0  0  0  0  0  0  0
   -2.0697   -2.3938    0.0000 C   0  0  0  0  0  0  0  0  0  0  0  0
   -1.2451   -2.3938    0.0000 N   0  0  0  0  0  0  0  0  0  0  0  0
   -0.9902   -1.6095    0.0000 N   0  0  0  0  0  0  0  0  0  0  0  0
   -0.8328   -3.1080    0.0000 C   0  0  0  0  0  0  0  0  0  0  0  0
   -1.2452   -3.8222    0.0000 C   0  0  0  0  0  0  0  0  0  0  0  0
   -2.0698   -3.8222    0.0000 C   0  0  0  0  0  0  0  0  0  0  0  0
   -2.4820   -3.1080    0.0000 N   0  0  0  0  0  0  0  0  0  0  0  0
   -3.4665   -3.1079    0.0000 H   0  0  0  0  0  0  0  0  0  0  0  0
  2  1  1  0  0  0  0
  2  3  2  0  0  0  0
  3  4  1  0  0  0  0
  3  9  1  0  0  0  0
  4  5  1  0  0  0  0
  4  6  1  0  0  0  0
  5  1  2  0  0  0  0
  7  6  1  0  0  0  0
  8  7  1  0  0  0  0
  9  8  1  0  0  0  0
  9 10  1  0  0  0  0
M  END
$$$$
Cc1cccc(n1)N
 OpenBabel07182308452D

  9  9  0  0  0  0  0  0  0  0999 V2000
    7.2849   -4.8099    0.0000 N   0  0  0  0  0  0  0  0  0  0  0  0
    7.9993   -4.3974    0.0000 C   0  0  0  0  0  0  0  0  0  0  0  0
    8.7138   -4.8099    0.0000 C   0  0  0  0  0  0  0  0  0  0  0  0
    9.4283   -4.3974    0.0000 C   0  0  0  0  0  0  0  0  0  0  0  0
    9.4283   -3.5724    0.0000 C   0  0  0  0  0  0  0  0  0  0  0  0
    8.7138   -3.1599    0.0000 C   0  0  0  0  0  0  0  0  0  0  0  0
    8.7138   -2.3349    0.0000 C   0  0  0  0  0  0  0  0  0  0  0  0
    7.9993   -3.5724    0.0000 N   0  0  0  0  0  0  0  0  0  0  0  0
    7.2849   -5.7944    0.0000 H   0  0  0  0  0  0  0  0  0  0  0  0
  1  2  1  0  0  0  0
  1  9  1  0  0  0  0
  2  3  2  0  0  0  0
  2  8  1  0  0  0  0
  3  4  1  0  0  0  0
  4  5  2  0  0  0  0
  5  6  1  0  0  0  0
  6  7  1  0  0  0  0
  6  8  2  0  0  0  0
M  END
$$$$
c1[nH]c2c(c1)n1ccnc1cn2
 OpenBabel07182308452D

 13 15  0  0  1  0  0  0  0  0999 V2000
    0.4848   -3.9685    0.0000 C   0  0  0  0  0  0  0  0  0  0  0  0
    0.1492   -4.7222    0.0000 C   0  0  0  0  0  0  0  0  0  0  0  0
   -0.6711   -4.6359    0.0000 N   0  0  0  0  0  0  0  0  0  0  0  0
   -0.8427   -3.8290    0.0000 C   0  0  0  0  0  0  0  0  0  0  0  0
   -1.5571   -3.4165    0.0000 C   0  0  0  0  0  0  0  0  0  0  0  0
   -1.5571   -2.5915    0.0000 N   0  0  0  0  0  0  0  0  0  0  0  0
   -0.8427   -2.1790    0.0000 C   0  0  0  0  0  0  0  0  0  0  0  0
   -0.1282   -2.5915    0.0000 C   0  0  0  0  0  0  0  0  0  0  0  0
    0.4848   -2.0394    0.0000 C   0  0  0  0  0  0  0  0  0  0  0  0
    0.1492   -1.2858    0.0000 C   0  0  0  0  0  0  0  0  0  0  0  0
   -0.6711   -1.3720    0.0000 N   0  0  0  0  0  0  0  0  0  0  0  0
   -0.1282   -3.4165    0.0000 N   0  0  0  0  0  0  0  0  0  0  0  0
   -1.3298   -0.6403    0.0000 H   0  0  0  0  0  0  0  0  0  0  0  0
  1  2  2  0  0  0  0
  1 12  1  0  0  0  0
  2  3  1  0  0  0  0
  3  4  2  0  0  0  0
  4  5  1  0  0  0  0
  4 12  1  0  0  0  0
  5  6  2  0  0  0  0
  6  7  1  0  0  0  0
  7  8  2  0  0  0  0
  7 11  1  0  0  0  0
  8  9  1  0  0  0  0
  8 12  1  0  0  0  0
  9 10  2  0  0  0  0
 10 11  1  0  0  0  0
 11 13  1  0  0  0  0
M  END
$$$$
O=C1NCc2c(N1)c1cc([nH]c1nc2)C
 OpenBabel07182308452D

 16 18  0  0  0  0  0  0  0  0999 V2000
    1.8189   -1.5520    0.0000 N   0  0  0  0  0  0  0  0  0  0  0  0
    0.9943   -1.5262    0.0000 C   0  0  0  0  0  0  0  0  0  0  0  0
    0.5597   -2.2275    0.0000 O   0  0  0  0  0  0  0  0  0  0  0  0
    0.6043   -0.7992    0.0000 N   0  0  0  0  0  0  0  0  0  0  0  0
    1.0390   -0.0980    0.0000 C   0  0  0  0  0  0  0  0  0  0  0  0
    1.8636   -0.1238    0.0000 C   0  0  0  0  0  0  0  0  0  0  0  0
    2.2982    0.5775    0.0000 C   0  0  0  0  0  0  0  0  0  0  0  0
    3.1228    0.5517    0.0000 N   0  0  0  0  0  0  0  0  0  0  0  0
    3.5127   -0.1753    0.0000 C   0  0  0  0  0  0  0  0  0  0  0  0
    4.3140   -0.3719    0.0000 N   0  0  0  0  0  0  0  0  0  0  0  0
    4.3745   -1.1947    0.0000 C   0  0  0  0  0  0  0  0  0  0  0  0
    5.0758   -1.6293    0.0000 C   0  0  0  0  0  0  0  0  0  0  0  0
    3.6108   -1.5066    0.0000 C   0  0  0  0  0  0  0  0  0  0  0  0
    3.0781   -0.8765    0.0000 C   0  0  0  0  0  0  0  0  0  0  0  0
    2.2535   -0.8508    0.0000 C   0  0  0  0  0  0  0  0  0  0  0  0
    5.0658    0.2637    0.0000 H   0  0  0  0  0  0  0  0  0  0  0  0
  1  2  1  0  0  0  0
  1 15  1  0  0  0  0
  2  3  2  0  0  0  0
  2  4  1  0  0  0  0
  4  5  1  0  0  0  0
  5  6  1  0  0  0  0
  6  7  2  0  0  0  0
  6 15  1  0  0  0  0
  7  8  1  0  0  0  0
  8  9  2  0  0  0  0
  9 10  1  0  0  0  0
  9 14  1  0  0  0  0
 10 11  1  0  0  0  0
 10 16  1  0  0  0  0
 11 12  1  0  0  0  0
 11 13  2  0  0  0  0
 13 14  1  0  0  0  0
 14 15  2  0  0  0  0
M  END
$$$$
O=c1cccn[nH]1
 OpenBabel07182308452D

  7  7  0  0  0  0  0  0  0  0999 V2000
   -3.5724    0.8250    0.0000 C   0  0  0  0  0  0  0  0  0  0  0  0
   -3.5724    1.6500    0.0000 C   0  0  0  0  0  0  0  0  0  0  0  0
   -2.8579    2.0625    0.0000 C   0  0  0  0  0  0  0  0  0  0  0  0
   -2.1434    1.6500    0.0000 C   0  0  0  0  0  0  0  0  0  0  0  0
   -2.1434    0.8250    0.0000 N   0  0  0  0  0  0  0  0  0  0  0  0
   -2.8579    0.4125    0.0000 N   0  0  0  0  0  0  0  0  0  0  0  0
   -1.4289    2.0625    0.0000 O   0  0  0  0  0  0  0  0  0  0  0  0
  1  2  1  0  0  0  0
  1  6  2  0  0  0  0
  2  3  2  0  0  0  0
  3  4  1  0  0  0  0
  4  5  1  0  0  0  0
  4  7  2  0  0  0  0
  5  6  1  0  0  0  0
M  END
$$$$
Nc1ncnc2c1c(C#Cc1ccccc1)n[nH]2
 OpenBabel07182308452D

 20 22  0  0  1  0  0  0  0  0999 V2000
   -0.6112    3.7211    0.0000 C   0  0  0  0  0  0  0  0  0  0  0  0
   -0.3563    2.9365    0.0000 C   0  0  0  0  0  0  0  0  0  0  0  0
   -0.9083    2.3234    0.0000 C   0  0  0  0  0  0  0  0  0  0  0  0
   -1.7153    2.4949    0.0000 C   0  0  0  0  0  0  0  0  0  0  0  0
   -1.9702    3.2795    0.0000 C   0  0  0  0  0  0  0  0  0  0  0  0
   -1.4182    3.8926    0.0000 C   0  0  0  0  0  0  0  0  0  0  0  0
   -0.6534    1.5387    0.0000 C   0  0  0  0  0  0  0  0  0  0  0  0
   -0.3984    0.7541    0.0000 C   0  0  0  0  0  0  0  0  0  0  0  0
   -0.1435   -0.0305    0.0000 C   0  0  0  0  0  0  0  0  0  0  0  0
   -0.6284   -0.6979    0.0000 N   0  0  0  0  0  0  0  0  0  0  0  0
   -0.1435   -1.3654    0.0000 N   0  0  0  0  0  0  0  0  0  0  0  0
    0.6411   -1.1104    0.0000 C   0  0  0  0  0  0  0  0  0  0  0  0
    0.6411   -0.2854    0.0000 C   0  0  0  0  0  0  0  0  0  0  0  0
    1.3556    0.1271    0.0000 C   0  0  0  0  0  0  0  0  0  0  0  0
    1.3556    0.9521    0.0000 N   0  0  0  0  0  0  0  0  0  0  0  0
    2.0701   -0.2854    0.0000 N   0  0  0  0  0  0  0  0  0  0  0  0
    2.0701   -1.1104    0.0000 C   0  0  0  0  0  0  0  0  0  0  0  0
    1.3556   -1.5229    0.0000 N   0  0  0  0  0  0  0  0  0  0  0  0
    2.2082    1.4444    0.0000 H   0  0  0  0  0  0  0  0  0  0  0  0
    0.5030    1.4444    0.0000 H   0  0  0  0  0  0  0  0  0  0  0  0
  1  2  2  0  0  0  0
  1  6  1  0  0  0  0
  2  3  1  0  0  0  0
  3  4  2  0  0  0  0
  3  7  1  0  0  0  0
  4  5  1  0  0  0  0
  5  6  2  0  0  0  0
  7  8  3  0  0  0  0
  8  9  1  0  0  0  0
  9 10  2  0  0  0  0
  9 13  1  0  0  0  0
 10 11  1  0  0  0  0
 11 12  1  0  0  0  0
 12 13  2  0  0  0  0
 12 18  1  0  0  0  0
 13 14  1  0  0  0  0
 14 15  1  0  0  0  0
 14 16  2  0  0  0  0
 15 19  1  0  0  0  0
 15 20  1  0  0  0  0
 16 17  1  0  0  0  0
 17 18  2  0  0  0  0
M  END
$$$$
n1cnn2c(c1)ccc2
 OpenBabel07182308452D

  9 10  0  0  0  0  0  0  0  0999 V2000
   -2.7518    4.1235    0.0000 C   0  0  0  0  0  0  0  0  0  0  0  0
   -2.0372    4.5358    0.0000 N   0  0  0  0  0  0  0  0  0  0  0  0
   -1.3253    4.1239    0.0000 N   0  0  0  0  0  0  0  0  0  0  0  0
   -1.3253    3.2986    0.0000 C   0  0  0  0  0  0  0  0  0  0  0  0
   -2.0355    2.8868    0.0000 C   0  0  0  0  0  0  0  0  0  0  0  0
   -2.7518    3.2949    0.0000 N   0  0  0  0  0  0  0  0  0  0  0  0
   -0.5404    4.3789    0.0000 C   0  0  0  0  0  0  0  0  0  0  0  0
   -0.5404    3.0436    0.0000 C   0  0  0  0  0  0  0  0  0  0  0  0
   -0.0554    3.7114    0.0000 C   0  0  0  0  0  0  0  0  0  0  0  0
  1  6  1  0  0  0  0
  2  1  2  0  0  0  0
  3  2  1  0  0  0  0
  3  7  1  0  0  0  0
  4  3  1  0  0  0  0
  4  8  2  0  0  0  0
  5  4  1  0  0  0  0
  6  5  2  0  0  0  0
  8  9  1  0  0  0  0
  9  7  2  0  0  0  0
M  END
$$$$
Cc1nc2n(c1)nccc2C
 OpenBabel07182308452D

 11 12  0  0  0  0  0  0  0  0999 V2000
    6.0176    9.3571    0.0000 C   0  0  0  0  0  0  0  0  0  0  0  0
    5.3031    8.9446    0.0000 C   0  0  0  0  0  0  0  0  0  0  0  0
    5.2168    8.1241    0.0000 C   0  0  0  0  0  0  0  0  0  0  0  0
    4.4099    7.9526    0.0000 N   0  0  0  0  0  0  0  0  0  0  0  0
    3.9974    7.2381    0.0000 N   0  0  0  0  0  0  0  0  0  0  0  0
    3.1724    7.2381    0.0000 C   0  0  0  0  0  0  0  0  0  0  0  0
    2.7599    7.9526    0.0000 C   0  0  0  0  0  0  0  0  0  0  0  0
    3.1724    8.6671    0.0000 C   0  0  0  0  0  0  0  0  0  0  0  0
    2.7599    9.3816    0.0000 C   0  0  0  0  0  0  0  0  0  0  0  0
    3.9974    8.6671    0.0000 C   0  0  0  0  0  0  0  0  0  0  0  0
    4.5494    9.2802    0.0000 N   0  0  0  0  0  0  0  0  0  0  0  0
  1  2  1  0  0  0  0
  2  3  2  0  0  0  0
  2 11  1  0  0  0  0
  3  4  1  0  0  0  0
  4  5  1  0  0  0  0
  4 10  1  0  0  0  0
  5  6  2  0  0  0  0
  6  7  1  0  0  0  0
  7  8  2  0  0  0  0
  8  9  1  0  0  0  0
  8 10  1  0  0  0  0
 10 11  2  0  0  0  0
M  END
$$$$
O=c1ccnc2n1cccc2
 OpenBabel07182308452D

 11 12  0  0  0  0  0  0  0  0999 V2000
    2.7599    6.5237    0.0000 C   0  0  0  0  0  0  0  0  0  0  0  0
    3.1724    5.8092    0.0000 C   0  0  0  0  0  0  0  0  0  0  0  0
    2.7599    5.0947    0.0000 C   0  0  0  0  0  0  0  0  0  0  0  0
    3.1724    4.3803    0.0000 O   0  0  0  0  0  0  0  0  0  0  0  0
    1.9349    5.0947    0.0000 N   0  0  0  0  0  0  0  0  0  0  0  0
    1.5224    4.3803    0.0000 C   0  0  0  0  0  0  0  0  0  0  0  0
    0.6974    4.3803    0.0000 C   0  0  0  0  0  0  0  0  0  0  0  0
    0.2849    5.0947    0.0000 C   0  0  0  0  0  0  0  0  0  0  0  0
    0.6974    5.8092    0.0000 C   0  0  0  0  0  0  0  0  0  0  0  0
    1.5224    5.8092    0.0000 C   0  0  0  0  0  0  0  0  0  0  0  0
    1.9349    6.5237    0.0000 N   0  0  0  0  0  0  0  0  0  0  0  0
  1  2  2  0  0  0  0
  1 11  1  0  0  0  0
  2  3  1  0  0  0  0
  3  4  2  0  0  0  0
  3  5  1  0  0  0  0
  5  6  1  0  0  0  0
  5 10  1  0  0  0  0
  6  7  2  0  0  0  0
  7  8  1  0  0  0  0
  8  9  2  0  0  0  0
  9 10  1  0  0  0  0
 10 11  2  0  0  0  0
M  END
$$$$
C1CNC2(CN1)CC2
 OpenBabel07182308452D

  9 10  0  0  0  0  0  0  0  0999 V2000
    0.2849    3.6658    0.0000 N   0  0  0  0  0  0  0  0  0  0  0  0
    0.6974    2.9513    0.0000 C   0  0  0  0  0  0  0  0  0  0  0  0
    0.2849    2.2368    0.0000 C   0  0  0  0  0  0  0  0  0  0  0  0
   -0.5401    2.2368    0.0000 N   0  0  0  0  0  0  0  0  0  0  0  0
   -0.9526    2.9513    0.0000 C   0  0  0  0  0  0  0  0  0  0  0  0
   -1.6671    2.5388    0.0000 C   0  0  0  0  0  0  0  0  0  0  0  0
   -1.6671    3.3638    0.0000 C   0  0  0  0  0  0  0  0  0  0  0  0
   -0.5401    3.6658    0.0000 C   0  0  0  0  0  0  0  0  0  0  0  0
   -1.0501    1.3535    0.0000 H   0  0  0  0  0  0  0  0  0  0  0  0
  1  2  1  0  0  0  0
  1  8  1  0  0  0  0
  2  3  1  0  0  0  0
  3  4  1  0  0  0  0
  4  5  1  0  0  0  0
  4  9  1  0  0  0  0
  5  6  1  0  0  0  0
  5  7  1  0  0  0  0
  5  8  1  0  0  0  0
  6  7  1  0  0  0  0
M  END
$$$$
O=C1Nc2c([C@@]31Cc1c(C3)cccn1)cccn2
 OpenBabel07182308452D

 19 22  0  0  0  0  0  0  0  0999 V2000
    1.4300   -2.3626    0.0000 C   0  0  0  0  0  0  0  0  0  0  0  0
    1.4301   -1.5375    0.0000 C   0  0  0  0  0  0  0  0  0  0  0  0
    0.7156   -1.1251    0.0000 C   0  0  0  0  0  0  0  0  0  0  0  0
    0.0012   -1.5376    0.0000 C   0  0  0  0  0  0  0  0  0  0  0  0
    0.0011   -2.3625    0.0000 C   0  0  0  0  0  0  0  0  0  0  0  0
    0.7156   -2.7750    0.0000 N   0  0  0  0  0  0  0  0  0  0  0  0
    2.2147   -1.2826    0.0000 C   0  0  0  0  0  0  0  0  0  0  0  0
    2.6997   -1.9501    0.0000 C   0  0  2  0  0  0  0  0  0  0  0  0
    2.2147   -2.6175    0.0000 C   0  0  0  0  0  0  0  0  0  0  0  0
    3.9692   -1.5376    0.0000 C   0  0  0  0  0  0  0  0  0  0  0  0
    3.1845   -1.2826    0.0000 C   0  0  0  0  0  0  0  0  0  0  0  0
    3.0130   -0.4756    0.0000 C   0  0  0  0  0  0  0  0  0  0  0  0
    3.6261    0.0762    0.0000 C   0  0  0  0  0  0  0  0  0  0  0  0
    4.4107   -0.1786    0.0000 C   0  0  0  0  0  0  0  0  0  0  0  0
    4.5823   -0.9855    0.0000 N   0  0  0  0  0  0  0  0  0  0  0  0
    3.9692   -2.3626    0.0000 N   0  0  0  0  0  0  0  0  0  0  0  0
    3.1845   -2.6176    0.0000 C   0  0  0  0  0  0  0  0  0  0  0  0
    2.9296   -3.4022    0.0000 O   0  0  0  0  0  0  0  0  0  0  0  0
    4.7657   -2.9413    0.0000 H   0  0  0  0  0  0  0  0  0  0  0  0
  1  2  1  0  0  0  0
  1  6  2  0  0  0  0
  1  9  1  0  0  0  0
  2  3  2  0  0  0  0
  2  7  1  0  0  0  0
  3  4  1  0  0  0  0
  4  5  2  0  0  0  0
  5  6  1  0  0  0  0
  8  7  1  6  0  0  0
  8  9  1  0  0  0  0
  8 11  1  0  0  0  0
  8 17  1  0  0  0  0
 10 11  1  0  0  0  0
 10 15  2  0  0  0  0
 10 16  1  0  0  0  0
 11 12  2  0  0  0  0
 12 13  1  0  0  0  0
 13 14  2  0  0  0  0
 14 15  1  0  0  0  0
 16 17  1  0  0  0  0
 16 19  1  0  0  0  0
 17 18  2  0  0  0  0
M  END
$$$$
C[C@@H]1CCCC(=O)N1
 OpenBabel07182308452D

  8  8  0  0  0  0  0  0  0  0999 V2000
   -2.1422    1.3498    0.0000 N   0  0  0  0  0  0  0  0  0  0  0  0
   -1.4277    0.9373    0.0000 C   0  0  0  0  0  0  0  0  0  0  0  0
   -1.4277    0.1123    0.0000 C   0  0  0  0  0  0  0  0  0  0  0  0
   -2.1421   -0.3001    0.0000 C   0  0  0  0  0  0  0  0  0  0  0  0
   -2.8566    0.1123    0.0000 C   0  0  0  0  0  0  0  0  0  0  0  0
   -2.8566    0.9373    0.0000 C   0  0  1  0  0  0  0  0  0  0  0  0
   -0.7132    1.3498    0.0000 O   0  0  0  0  0  0  0  0  0  0  0  0
   -3.5711    1.3499    0.0000 C   0  0  0  0  0  0  0  0  0  0  0  0
  1  2  1  0  0  0  0
  1  6  1  0  0  0  0
  2  3  1  0  0  0  0
  2  7  2  0  0  0  0
  3  4  1  0  0  0  0
  4  5  1  0  0  0  0
  5  6  1  0  0  0  0
  6  8  1  1  0  0  0
M  END
$$$$
Cc1cnc2c(n1)c(=O)[nH]c(n2)N
 OpenBabel07182308452D

 16 17  0  0  1  0  0  0  0  0999 V2000
   -7.6951   -2.9368    0.0000 C   0  0  0  0  0  0  0  0  0  0  0  0
   -6.9784   -2.5277    0.0000 N   0  0  0  0  0  0  0  0  0  0  0  0
   -6.2663   -2.9361    0.0000 C   0  0  0  0  0  0  0  0  0  0  0  0
   -6.2663   -3.7601    0.0000 C   0  0  0  0  0  0  0  0  0  0  0  0
   -6.9755   -4.1730    0.0000 N   0  0  0  0  0  0  0  0  0  0  0  0
   -7.6951   -3.7661    0.0000 C   0  0  0  0  0  0  0  0  0  0  0  0
   -8.4085   -4.1756    0.0000 N   0  0  0  0  0  0  0  0  0  0  0  0
   -9.1254   -3.7634    0.0000 C   0  0  0  0  0  0  0  0  0  0  0  0
   -9.1254   -2.9408    0.0000 N   0  0  0  0  0  0  0  0  0  0  0  0
   -8.4120   -2.5221    0.0000 C   0  0  0  0  0  0  0  0  0  0  0  0
   -8.4120   -1.6938    0.0000 O   0  0  0  0  0  0  0  0  0  0  0  0
   -9.8419   -4.1775    0.0000 N   0  0  0  0  0  0  0  0  0  0  0  0
   -5.5500   -2.5268    0.0000 C   0  0  0  0  0  0  0  0  0  0  0  0
   -9.9798   -2.4516    0.0000 H   0  0  0  0  0  0  0  0  0  0  0  0
  -10.6947   -3.6856    0.0000 H   0  0  0  0  0  0  0  0  0  0  0  0
   -9.8415   -5.1620    0.0000 H   0  0  0  0  0  0  0  0  0  0  0  0
  1  6  1  0  0  0  0
  1 10  1  0  0  0  0
  2  1  2  0  0  0  0
  3  2  1  0  0  0  0
  3 13  1  0  0  0  0
  4  3  2  0  0  0  0
  5  4  1  0  0  0  0
  6  5  2  0  0  0  0
  6  7  1  0  0  0  0
  8  7  2  0  0  0  0
  8 12  1  0  0  0  0
  9  8  1  0  0  0  0
  9 14  1  0  0  0  0
 10  9  1  0  0  0  0
 10 11  2  0  0  0  0
 12 15  1  0  0  0  0
 12 16  1  0  0  0  0
M  END
$$$$
C=C1CCCC=C1
 OpenBabel07182308452D

  7  7  0  0  1  0  0  0  0  0999 V2000
    3.7344   -0.4625    0.0000 C   0  0  0  0  0  0  0  0  0  0  0  0
    4.4507   -0.0531    0.0000 C   0  0  0  0  0  0  0  0  0  0  0  0
    5.1668   -0.4625    0.0000 C   0  0  0  0  0  0  0  0  0  0  0  0
    5.1668   -1.2861    0.0000 C   0  0  0  0  0  0  0  0  0  0  0  0
    4.4507   -1.7002    0.0000 C   0  0  0  0  0  0  0  0  0  0  0  0
    3.7344   -1.2861    0.0000 C   0  0  0  0  0  0  0  0  0  0  0  0
    4.4507    0.7703    0.0000 C   0  0  0  0  0  0  0  0  0  0  0  0
  1  6  2  0  0  0  0
  2  1  1  0  0  0  0
  2  7  2  0  0  0  0
  3  2  1  0  0  0  0
  4  3  1  0  0  0  0
  5  4  1  0  0  0  0
  6  5  1  0  0  0  0
M  END
$$$$
C[N+]1=CC(c2c1cccc2)(C)C
 OpenBabel07182308452D

 12 13  0  0  1  0  0  0  0  0999 V2000
    2.3015   -2.9296    0.0000 C   0  0  0  0  0  0  0  0  0  0  0  0
    1.5388   -2.6036    0.0000 C   0  0  0  0  0  0  0  0  0  0  0  0
    1.0029   -3.2138    0.0000 C   0  0  0  0  0  0  0  0  0  0  0  0
    1.4198   -3.9299    0.0000 C   0  0  0  0  0  0  0  0  0  0  0  0
    2.2153   -3.7508    0.0000 N   0  3  0  0  0  0  0  0  0  0  0  0
    2.8007   -4.3316    0.0000 C   0  0  0  0  0  0  0  0  0  0  0  0
    1.0146   -4.6462    0.0000 C   0  0  0  0  0  0  0  0  0  0  0  0
    0.1907   -4.6462    0.0000 C   0  0  0  0  0  0  0  0  0  0  0  0
   -0.2253   -3.9073    0.0000 C   0  0  0  0  0  0  0  0  0  0  0  0
    0.1737   -3.2138    0.0000 C   0  0  0  0  0  0  0  0  0  0  0  0
    1.3271   -1.8064    0.0000 C   0  0  0  0  0  0  0  0  0  0  0  0
    2.1657   -2.0645    0.0000 C   0  0  0  0  0  0  0  0  0  0  0  0
  2  1  1  0  0  0  0
  2  3  1  0  0  0  0
  2 11  1  0  0  0  0
  2 12  1  0  0  0  0
  3  4  2  0  0  0  0
  3 10  1  0  0  0  0
  4  5  1  0  0  0  0
  4  7  1  0  0  0  0
  5  1  2  0  0  0  0
  5  6  1  0  0  0  0
  8  7  2  0  0  0  0
  9  8  1  0  0  0  0
 10  9  2  0  0  0  0
M  CHG  1   5   1
M  END
$$$$
CN1c2ccccc2C(C1=C)(C)C
 OpenBabel07182308452D

 13 14  0  0  1  0  0  0  0  0999 V2000
    5.1669    1.1844    0.0000 C   0  0  0  0  0  0  0  0  0  0  0  0
    5.1669    2.0125    0.0000 C   0  0  0  0  0  0  0  0  0  0  0  0
    4.4507    2.4220    0.0000 C   0  0  0  0  0  0  0  0  0  0  0  0
    4.6359    3.2443    0.0000 C   0  0  0  0  0  0  0  0  0  0  0  0
    5.4354    3.3272    0.0000 C   0  0  0  0  0  0  0  0  0  0  0  0
    5.7673    2.5617    0.0000 N   0  0  0  0  0  0  0  0  0  0  0  0
    6.5688    2.3547    0.0000 C   0  0  0  0  0  0  0  0  0  0  0  0
    5.7669    4.0620    0.0000 C   0  0  0  0  0  0  0  0  0  0  0  0
    5.2908    4.7172    0.0000 C   0  0  0  0  0  0  0  0  0  0  0  0
    4.4982    4.6321    0.0000 C   0  0  0  0  0  0  0  0  0  0  0  0
    4.1688    3.8975    0.0000 C   0  0  0  0  0  0  0  0  0  0  0  0
    3.7344    2.0125    0.0000 C   0  0  0  0  0  0  0  0  0  0  0  0
    3.7867    2.9122    0.0000 C   0  0  0  0  0  0  0  0  0  0  0  0
  1  2  2  0  0  0  0
  2  6  1  0  0  0  0
  3  2  1  0  0  0  0
  3  4  1  0  0  0  0
  3 12  1  0  0  0  0
  3 13  1  0  0  0  0
  4  5  2  0  0  0  0
  4 11  1  0  0  0  0
  5  8  1  0  0  0  0
  6  5  1  0  0  0  0
  6  7  1  0  0  0  0
  8  9  2  0  0  0  0
  9 10  1  0  0  0  0
 10 11  2  0  0  0  0
M  END
$$$$
O=C1NCC2(n3c1cc1c3ncnc1)CCCCC2
 OpenBabel07182308452D

 20 23  0  0  0  0  0  0  0  0999 V2000
    1.8136    0.4135    0.0000 C   0  0  0  0  0  0  0  0  0  0  0  0
    1.0794    0.7897    0.0000 N   0  0  0  0  0  0  0  0  0  0  0  0
    1.0380    1.6137    0.0000 C   0  0  0  0  0  0  0  0  0  0  0  0
    1.7309    2.0615    0.0000 C   0  0  0  0  0  0  0  0  0  0  0  0
    1.5192    2.8588    0.0000 C   0  0  0  0  0  0  0  0  0  0  0  0
    0.6954    2.9038    0.0000 C   0  0  0  0  0  0  0  0  0  0  0  0
    0.3980    2.1343    0.0000 N   0  0  0  0  0  0  0  0  0  0  0  0
   -0.4171    2.0070    0.0000 C   0  0  0  0  0  0  0  0  0  0  0  0
    0.1007    1.3647    0.0000 C   0  0  0  0  0  0  0  0  0  0  0  0
   -0.1967    0.5952    0.0000 C   0  0  0  0  0  0  0  0  0  0  0  0
   -1.0118    0.4680    0.0000 C   0  0  0  0  0  0  0  0  0  0  0  0
   -1.5296    1.1103    0.0000 C   0  0  0  0  0  0  0  0  0  0  0  0
   -1.2322    1.8798    0.0000 C   0  0  0  0  0  0  0  0  0  0  0  0
   -0.9349    2.6493    0.0000 C   0  0  0  0  0  0  0  0  0  0  0  0
   -0.6375    3.4189    0.0000 N   0  0  0  0  0  0  0  0  0  0  0  0
    0.1776    3.5461    0.0000 C   0  0  0  0  0  0  0  0  0  0  0  0
    0.4750    4.3157    0.0000 O   0  0  0  0  0  0  0  0  0  0  0  0
    2.4652    1.6853    0.0000 C   0  0  0  0  0  0  0  0  0  0  0  0
    2.5065    0.8613    0.0000 N   0  0  0  0  0  0  0  0  0  0  0  0
   -1.2553    4.1854    0.0000 H   0  0  0  0  0  0  0  0  0  0  0  0
  1  2  2  0  0  0  0
  1 19  1  0  0  0  0
  2  3  1  0  0  0  0
  3  4  2  0  0  0  0
  3  7  1  0  0  0  0
  4  5  1  0  0  0  0
  4 18  1  0  0  0  0
  5  6  2  0  0  0  0
  6  7  1  0  0  0  0
  6 16  1  0  0  0  0
  7  8  1  0  0  0  0
  8  9  1  0  0  0  0
  8 13  1  0  0  0  0
  8 14  1  0  0  0  0
  9 10  1  0  0  0  0
 10 11  1  0  0  0  0
 11 12  1  0  0  0  0
 12 13  1  0  0  0  0
 14 15  1  0  0  0  0
 15 16  1  0  0  0  0
 15 20  1  0  0  0  0
 16 17  2  0  0  0  0
 18 19  2  0  0  0  0
M  END
$$$$
C[C@@H]1CNC(C1)(C)C
 OpenBabel07182308452D

  8  8  0  0  1  0  0  0  0  0999 V2000
    1.6119   -3.1745    0.0000 C   0  0  0  0  0  0  0  0  0  0  0  0
    1.1270   -2.5070    0.0000 C   0  0  2  0  0  0  0  0  0  0  0  0
    0.3020   -2.5070    0.0000 C   0  0  0  0  0  0  0  0  0  0  0  0
    0.0470   -1.7224    0.0000 N   0  0  0  0  0  0  0  0  0  0  0  0
    0.7145   -1.2375    0.0000 C   0  0  0  0  0  0  0  0  0  0  0  0
    0.1624   -0.6244    0.0000 C   0  0  0  0  0  0  0  0  0  0  0  0
    1.2665   -0.6244    0.0000 C   0  0  0  0  0  0  0  0  0  0  0  0
    1.3819   -1.7224    0.0000 C   0  0  0  0  0  0  0  0  0  0  0  0
  2  1  1  6  0  0  0
  2  3  1  0  0  0  0
  2  8  1  0  0  0  0
  3  4  1  0  0  0  0
  4  5  1  0  0  0  0
  5  6  1  0  0  0  0
  5  7  1  0  0  0  0
  5  8  1  0  0  0  0
M  END
$$$$
Cc1ccn(n1)C
 OpenBabel07182308452D

  7  7  0  0  1  0  0  0  0  0999 V2000
    1.7148    0.7406    0.0000 C   0  0  0  0  0  0  0  0  0  0  0  0
    1.6286    1.5611    0.0000 C   0  0  0  0  0  0  0  0  0  0  0  0
    2.3822    1.8967    0.0000 N   0  0  0  0  0  0  0  0  0  0  0  0
    2.5538    2.7037    0.0000 C   0  0  0  0  0  0  0  0  0  0  0  0
    2.9343    1.2836    0.0000 N   0  0  0  0  0  0  0  0  0  0  0  0
    2.5218    0.5691    0.0000 C   0  0  0  0  0  0  0  0  0  0  0  0
    2.8573   -0.1846    0.0000 C   0  0  0  0  0  0  0  0  0  0  0  0
  1  2  2  0  0  0  0
  1  6  1  0  0  0  0
  2  3  1  0  0  0  0
  3  4  1  0  0  0  0
  3  5  1  0  0  0  0
  5  6  2  0  0  0  0
  6  7  1  0  0  0  0
M  END
$$$$
Oc1cc[nH]n1
 OpenBabel07182308452D

  6  6  0  0  1  0  0  0  0  0999 V2000
   -2.7484   -2.3166    0.0000 N   0  0  0  0  0  0  0  0  0  0  0  0
   -2.6622   -3.1371    0.0000 C   0  0  0  0  0  0  0  0  0  0  0  0
   -3.4158   -3.4726    0.0000 C   0  0  0  0  0  0  0  0  0  0  0  0
   -3.9679   -2.8596    0.0000 C   0  0  0  0  0  0  0  0  0  0  0  0
   -4.7884   -2.9458    0.0000 O   0  0  0  0  0  0  0  0  0  0  0  0
   -3.5554   -2.1451    0.0000 N   0  0  0  0  0  0  0  0  0  0  0  0
  1  2  1  0  0  0  0
  1  6  1  0  0  0  0
  2  3  2  0  0  0  0
  3  4  1  0  0  0  0
  4  5  1  0  0  0  0
  4  6  2  0  0  0  0
M  END
$$$$
Nc1c(N)ncnc1N
 OpenBabel07182308452D

 14 14  0  0  0  0  0  0  0  0999 V2000
    0.4609    0.9193    0.0000 N   0  0  0  0  0  0  0  0  0  0  0  0
   -0.3260    1.1678    0.0000 C   0  0  0  0  0  0  0  0  0  0  0  0
   -0.5080    1.9608    0.0000 N   0  0  0  0  0  0  0  0  0  0  0  0
    0.1089    2.5447    0.0000 C   0  0  0  0  0  0  0  0  0  0  0  0
    0.8957    2.2963    0.0000 C   0  0  0  0  0  0  0  0  0  0  0  0
    1.0654    1.4639    0.0000 C   0  0  0  0  0  0  0  0  0  0  0  0
    1.8523    1.2153    0.0000 N   0  0  0  0  0  0  0  0  0  0  0  0
    1.5003    2.8407    0.0000 N   0  0  0  0  0  0  0  0  0  0  0  0
   -0.0731    3.3376    0.0000 N   0  0  0  0  0  0  0  0  0  0  0  0
    2.0648    0.2540    0.0000 H   0  0  0  0  0  0  0  0  0  0  0  0
    2.5785    1.8800    0.0000 H   0  0  0  0  0  0  0  0  0  0  0  0
    1.2955    3.8037    0.0000 H   0  0  0  0  0  0  0  0  0  0  0  0
    0.6478    4.0081    0.0000 H   0  0  0  0  0  0  0  0  0  0  0  0
   -1.0142    3.6266    0.0000 H   0  0  0  0  0  0  0  0  0  0  0  0
  1  2  1  0  0  0  0
  1  6  2  0  0  0  0
  2  3  2  0  0  0  0
  3  4  1  0  0  0  0
  4  5  2  0  0  0  0
  4  9  1  0  0  0  0
  5  6  1  0  0  0  0
  5  8  1  0  0  0  0
  6  7  1  0  0  0  0
  7 10  1  0  0  0  0
  7 11  1  0  0  0  0
  8 12  1  0  0  0  0
  9 13  1  0  0  0  0
  9 14  1  0  0  0  0
M  END
$$$$
Fc1cnc2c(c1)cnn2C
 OpenBabel07182308452D

 11 12  0  0  0  0  0  0  0  0999 V2000
   -0.9305    0.6233    0.0000 C   0  0  0  0  0  0  0  0  0  0  0  0
   -1.3673   -0.6231    0.0000 N   0  0  0  0  0  0  0  0  0  0  0  0
   -2.0010   -0.1634    0.0000 C   0  0  0  0  0  0  0  0  0  0  0  0
   -1.7526    0.6233    0.0000 C   0  0  0  0  0  0  0  0  0  0  0  0
   -0.6574   -0.1552    0.0000 N   0  0  0  0  0  0  0  0  0  0  0  0
   -2.8209   -0.2939    0.0000 N   0  0  0  0  0  0  0  0  0  0  0  0
   -3.3655    0.3107    0.0000 C   0  0  0  0  0  0  0  0  0  0  0  0
   -3.1171    1.0974    0.0000 C   0  0  0  0  0  0  0  0  0  0  0  0
   -2.2847    1.2673    0.0000 C   0  0  0  0  0  0  0  0  0  0  0  0
   -1.1853   -1.4162    0.0000 C   0  0  0  0  0  0  0  0  0  0  0  0
   -3.6526    1.6921    0.0000 F   0  0  0  0  0  0  0  0  0  0  0  0
  1  5  2  0  0  0  0
  2  3  1  0  0  0  0
  2  5  1  0  0  0  0
  3  4  2  0  0  0  0
  3  6  1  0  0  0  0
  4  1  1  0  0  0  0
  4  9  1  0  0  0  0
  6  7  2  0  0  0  0
  7  8  1  0  0  0  0
  8  9  2  0  0  0  0
  8 11  1  0  0  0  0
 10  2  1  0  0  0  0
M  END
$$$$
N#Cc1cc(O)cc(c1)F
 OpenBabel07182308452D

 10 10  0  0  1  0  0  0  0  0999 V2000
   -2.4761    0.8249    0.0000 C   0  0  0  0  0  0  0  0  0  0  0  0
   -1.7617    1.2374    0.0000 C   0  0  0  0  0  0  0  0  0  0  0  0
   -1.0473    0.8249    0.0000 C   0  0  0  0  0  0  0  0  0  0  0  0
   -0.3327    1.2374    0.0000 C   0  0  0  0  0  0  0  0  0  0  0  0
   -0.3327    2.0624    0.0000 C   0  0  0  0  0  0  0  0  0  0  0  0
   -1.0473    2.4749    0.0000 C   0  0  0  0  0  0  0  0  0  0  0  0
   -1.7617    2.0624    0.0000 C   0  0  0  0  0  0  0  0  0  0  0  0
   -1.0473    3.2999    0.0000 F   0  0  0  0  0  0  0  0  0  0  0  0
    0.3817    0.8249    0.0000 O   0  0  0  0  0  0  0  0  0  0  0  0
   -3.1907    0.4124    0.0000 N   0  0  0  0  0  0  0  0  0  0  0  0
  1  2  1  0  0  0  0
  1 10  3  0  0  0  0
  2  3  1  0  0  0  0
  2  7  2  0  0  0  0
  3  4  2  0  0  0  0
  4  5  1  0  0  0  0
  4  9  1  0  0  0  0
  5  6  2  0  0  0  0
  6  7  1  0  0  0  0
  6  8  1  0  0  0  0
M  END
$$$$
F[C@@H]1c2ccccc2[C@@H]([C@@H]1F)O
 OpenBabel07182308452D

 13 14  0  0  1  0  0  0  0  0999 V2000
    0.3817    0.0000    0.0000 C   0  0  0  0  0  0  0  0  0  0  0  0
    1.0961   -0.4125    0.0000 C   0  0  0  0  0  0  0  0  0  0  0  0
    1.8807   -0.1575    0.0000 C   0  0  2  0  0  0  0  0  0  0  0  0
    2.3657   -0.8250    0.0000 C   0  0  2  0  0  0  0  0  0  0  0  0
    1.8807   -1.4924    0.0000 C   0  0  2  0  0  0  0  0  0  0  0  0
    1.0961   -1.2375    0.0000 C   0  0  0  0  0  0  0  0  0  0  0  0
    0.3817   -1.6500    0.0000 C   0  0  0  0  0  0  0  0  0  0  0  0
   -0.3327   -1.2375    0.0000 C   0  0  0  0  0  0  0  0  0  0  0  0
   -0.3327   -0.4125    0.0000 C   0  0  0  0  0  0  0  0  0  0  0  0
    2.1357   -2.2771    0.0000 O   0  0  0  0  0  0  0  0  0  0  0  0
    3.1907   -0.8250    0.0000 F   0  0  0  0  0  0  0  0  0  0  0  0
    2.1357    0.6270    0.0000 F   0  0  0  0  0  0  0  0  0  0  0  0
    1.4867   -2.9980    0.0000 H   0  0  0  0  0  0  0  0  0  0  0  0
  1  9  2  0  0  0  0
  2  1  1  0  0  0  0
  2  6  2  0  0  0  0
  3  2  1  0  0  0  0
  3 12  1  1  0  0  0
  4  3  1  0  0  0  0
  4 11  1  1  0  0  0
  5  4  1  0  0  0  0
  5  6  1  0  0  0  0
  5 10  1  1  0  0  0
  7  6  1  0  0  0  0
  8  7  2  0  0  0  0
  9  8  1  0  0  0  0
 10 13  1  0  0  0  0
M  END
$$$$
CN1CC[C@@]23[C@H]4[C@H]1Cc1c3c(O[C@H]2C=CC4)ccc1
 OpenBabel07182308452D

 22 26  0  0  0  0  0  0  0  0999 V2000
    0.5235   -0.2085    0.0000 O   0  0  0  0  0  0  0  0  0  0  0  0
   -0.1906    0.3128    0.0000 C   0  0  2  0  0  0  0  0  0  0  0  0
    0.0465    0.9198    0.0000 C   0  0  1  0  0  0  0  0  0  0  0  0
    1.2045    0.3115    0.0000 C   0  0  0  0  0  0  0  0  0  0  0  0
    2.0451    0.3729    0.0000 C   0  0  0  0  0  0  0  0  0  0  0  0
    2.4205    1.1183    0.0000 C   0  0  0  0  0  0  0  0  0  0  0  0
    1.9421    1.8192    0.0000 C   0  0  0  0  0  0  0  0  0  0  0  0
    1.0729    1.8631    0.0000 C   0  0  0  0  0  0  0  0  0  0  0  0
    0.2823    2.3757    0.0000 C   0  0  0  0  0  0  0  0  0  0  0  0
   -0.6106    1.9271    0.0000 C   0  0  2  0  0  0  0  0  0  0  0  0
   -0.1676    1.7601    0.0000 C   0  0  1  0  0  0  0  0  0  0  0  0
   -0.9668    2.2062    0.0000 C   0  0  0  0  0  0  0  0  0  0  0  0
   -1.0132    0.7560    0.0000 C   0  0  0  0  0  0  0  0  0  0  0  0
   -1.5062    1.6343    0.0000 C   0  0  0  0  0  0  0  0  0  0  0  0
   -0.6305   -0.3850    0.0000 H   0  0  0  0  0  0  0  0  0  0  0  0
    0.8343    1.0648    0.0000 C   0  0  0  0  0  0  0  0  0  0  0  0
    0.6188    2.0090    0.0000 H   0  0  0  0  0  0  0  0  0  0  0  0
   -1.0898    2.5987    0.0000 H   0  0  0  0  0  0  0  0  0  0  0  0
   -0.6743    0.2282    0.0000 C   0  0  0  0  0  0  0  0  0  0  0  0
   -1.2942    1.2589    0.0000 N   0  0  0  0  0  0  0  0  0  0  0  0
   -1.4647    0.4552    0.0000 C   0  0  0  0  0  0  0  0  0  0  0  0
   -2.0169    1.6566    0.0000 C   0  0  0  0  0  0  0  0  0  0  0  0
  2  3  1  6  0  0  0
  2 13  1  0  0  0  0
  2 15  1  0  0  0  0
  2  1  1  0  0  0  0
  3 11  1  1  0  0  0
  3 19  1  0  0  0  0
  4  1  1  0  0  0  0
  4 16  1  0  0  0  0
  5  4  2  0  0  0  0
  6  7  2  0  0  0  0
  6  5  1  0  0  0  0
  7  8  1  0  0  0  0
  8 16  2  0  0  0  0
  9  8  1  0  0  0  0
 10 11  1  1  0  0  0
 10  9  1  0  0  0  0
 10 18  1  0  0  0  0
 10 20  1  0  0  0  0
 11 17  1  6  0  0  0
 12 11  1  0  0  0  0
 13 14  2  0  0  0  0
 14 12  1  0  0  0  0
 16  3  1  0  0  0  0
 20 21  1  0  0  0  0
 20 22  1  0  0  0  0
 21 19  1  0  0  0  0
M  END
$$$$
O[Zr]Cl
 OpenBabel07182308452D

  4  3  0  0  0  0  0  0  0  0999 V2000
    0.0000    0.0000    0.0000 Zr  0  0  0  0  0  0  0  0  0  0  0  0
   -0.8250    0.0000    0.0000 O   0  0  0  0  0  0  0  0  0  0  0  0
    0.8250    0.0000    0.0000 Cl  0  0  0  0  0  0  0  0  0  0  0  0
   -1.3100    0.8400    0.0000 H   0  0  0  0  0  0  0  0  0  0  0  0
  1  2  1  0  0  0  0
  1  3  1  0  0  0  0
  2  4  1  0  0  0  0
M  END
$$$$
O=C1NCCSSCCC(=O)N[C@H](C(=O)N[C@@H](C(=O)N[C@H](C(=O)NC1)C)C)C
 OpenBabel07182308452D

 33 33  0  0  0  0  0  0  0  0999 V2000
   -0.1085   -1.8228    0.0000 C   0  0  0  0  0  0  0  0  0  0  0  0
   -0.1085   -2.6477    0.0000 C   0  0  0  0  0  0  0  0  0  0  0  0
    0.6060   -3.0601    0.0000 S   0  0  0  0  0  0  0  0  0  0  0  0
    0.6060   -3.8895    0.0000 S   0  0  0  0  0  0  0  0  0  0  0  0
    1.3205   -4.3019    0.0000 C   0  0  0  0  0  0  0  0  0  0  0  0
    1.3205   -5.1266    0.0000 C   0  0  0  0  0  0  0  0  0  0  0  0
    0.6060   -5.5391    0.0000 N   0  0  0  0  0  0  0  0  0  0  0  0
   -0.1085   -5.1266    0.0000 C   0  0  0  0  0  0  0  0  0  0  0  0
   -0.8276   -5.5391    0.0000 C   0  0  0  0  0  0  0  0  0  0  0  0
   -1.5422   -5.1266    0.0000 N   0  0  0  0  0  0  0  0  0  0  0  0
   -2.2568   -5.5391    0.0000 C   0  0  0  0  0  0  0  0  0  0  0  0
   -2.9713   -5.1266    0.0000 C   0  0  1  0  0  0  0  0  0  0  0  0
   -2.9713   -4.3019    0.0000 N   0  0  0  0  0  0  0  0  0  0  0  0
   -3.6858   -3.8895    0.0000 C   0  0  0  0  0  0  0  0  0  0  0  0
   -3.6858   -3.0601    0.0000 C   0  0  2  0  0  0  0  0  0  0  0  0
   -2.9713   -2.6477    0.0000 N   0  0  0  0  0  0  0  0  0  0  0  0
   -2.9713   -1.8228    0.0000 C   0  0  0  0  0  0  0  0  0  0  0  0
   -2.2568   -1.4106    0.0000 C   0  0  1  0  0  0  0  0  0  0  0  0
   -1.5422   -1.8228    0.0000 N   0  0  0  0  0  0  0  0  0  0  0  0
   -0.8276   -1.4106    0.0000 C   0  0  0  0  0  0  0  0  0  0  0  0
   -0.8276   -0.5856    0.0000 O   0  0  0  0  0  0  0  0  0  0  0  0
   -2.2568   -0.5856    0.0000 C   0  0  0  0  0  0  0  0  0  0  0  0
   -3.6858   -1.4106    0.0000 O   0  0  0  0  0  0  0  0  0  0  0  0
   -4.4004   -2.6477    0.0000 C   0  0  0  0  0  0  0  0  0  0  0  0
   -4.4004   -4.3019    0.0000 O   0  0  0  0  0  0  0  0  0  0  0  0
   -3.6858   -5.5391    0.0000 C   0  0  0  0  0  0  0  0  0  0  0  0
   -2.2568   -6.3639    0.0000 O   0  0  0  0  0  0  0  0  0  0  0  0
   -0.1085   -4.3019    0.0000 O   0  0  0  0  0  0  0  0  0  0  0  0
    0.6060   -6.5236    0.0000 H   0  0  0  0  0  0  0  0  0  0  0  0
   -1.5422   -4.1421    0.0000 H   0  0  0  0  0  0  0  0  0  0  0  0
   -2.1187   -3.8096    0.0000 H   0  0  0  0  0  0  0  0  0  0  0  0
   -2.1187   -3.1400    0.0000 H   0  0  0  0  0  0  0  0  0  0  0  0
   -1.5422   -2.8073    0.0000 H   0  0  0  0  0  0  0  0  0  0  0  0
  1  2  1  0  0  0  0
  1 20  1  0  0  0  0
  2  3  1  0  0  0  0
  3  4  1  0  0  0  0
  5  4  1  0  0  0  0
  6  5  1  0  0  0  0
  7  6  1  0  0  0  0
  7 29  1  0  0  0  0
  8  7  1  0  0  0  0
  8 28  2  0  0  0  0
  9  8  1  0  0  0  0
  9 10  1  0  0  0  0
 10 11  1  0  0  0  0
 10 30  1  0  0  0  0
 11 27  2  0  0  0  0
 12 11  1  0  0  0  0
 12 26  1  6  0  0  0
 13 12  1  0  0  0  0
 13 14  1  0  0  0  0
 13 31  1  0  0  0  0
 14 25  2  0  0  0  0
 15 14  1  0  0  0  0
 15 24  1  1  0  0  0
 16 15  1  0  0  0  0
 16 17  1  0  0  0  0
 16 32  1  0  0  0  0
 17 23  2  0  0  0  0
 18 17  1  0  0  0  0
 18 22  1  6  0  0  0
 19 18  1  0  0  0  0
 19 20  1  0  0  0  0
 19 33  1  0  0  0  0
 20 21  2  0  0  0  0
M  END
$$$$
NC1CCc2c(c3c1cc(=O)c(cc3)O)cccc2
 OpenBabel07182308452D

 21 23  0  0  0  0  0  0  0  0999 V2000
    1.3384   -1.5236    0.0000 C   0  0  0  0  0  0  0  0  0  0  0  0
    1.8746   -0.8968    0.0000 C   0  0  0  0  0  0  0  0  0  0  0  0
    1.5999   -0.1189    0.0000 C   0  0  0  0  0  0  0  0  0  0  0  0
    0.7888    0.0321    0.0000 C   0  0  0  0  0  0  0  0  0  0  0  0
    0.2524   -0.5947    0.0000 C   0  0  0  0  0  0  0  0  0  0  0  0
    0.5273   -1.3725    0.0000 C   0  0  0  0  0  0  0  0  0  0  0  0
   -0.5719   -0.5663    0.0000 C   0  0  0  0  0  0  0  0  0  0  0  0
   -0.7832   -1.3637    0.0000 C   0  0  0  0  0  0  0  0  0  0  0  0
   -1.5384   -1.6958    0.0000 C   0  0  0  0  0  0  0  0  0  0  0  0
   -2.2689   -1.3124    0.0000 C   0  0  0  0  0  0  0  0  0  0  0  0
   -2.4245   -0.5024    0.0000 C   0  0  0  0  0  0  0  0  0  0  0  0
   -3.2219   -0.2912    0.0000 O   0  0  0  0  0  0  0  0  0  0  0  0
   -1.8883    0.1244    0.0000 C   0  0  0  0  0  0  0  0  0  0  0  0
   -1.0638    0.0960    0.0000 C   0  0  0  0  0  0  0  0  0  0  0  0
   -0.8526    0.8936    0.0000 C   0  0  3  0  0  0  0  0  0  0  0  0
   -0.0973    1.2257    0.0000 C   0  0  0  0  0  0  0  0  0  0  0  0
    0.6330    0.8423    0.0000 C   0  0  0  0  0  0  0  0  0  0  0  0
   -1.4795    1.4298    0.0000 N   0  0  0  0  0  0  0  0  0  0  0  0
   -2.9310   -1.8043    0.0000 O   0  0  0  0  0  0  0  0  0  0  0  0
   -2.4078    1.1019    0.0000 H   0  0  0  0  0  0  0  0  0  0  0  0
   -3.7910   -1.4323    0.0000 H   0  0  0  0  0  0  0  0  0  0  0  0
  1  2  2  0  0  0  0
  1  6  1  0  0  0  0
  2  3  1  0  0  0  0
  3  4  2  0  0  0  0
  4  5  1  0  0  0  0
  4 17  1  0  0  0  0
  5  6  2  0  0  0  0
  5  7  1  0  0  0  0
  7  8  2  0  0  0  0
  7 14  1  0  0  0  0
  8  9  1  0  0  0  0
  9 10  2  0  0  0  0
 10 11  1  0  0  0  0
 10 19  1  0  0  0  0
 11 12  2  0  0  0  0
 11 13  1  0  0  0  0
 13 14  2  0  0  0  0
 14 15  1  0  0  0  0
 15 16  1  0  0  0  0
 15 18  1  0  0  0  0
 16 17  1  0  0  0  0
 18 20  1  0  0  0  0
 19 21  1  0  0  0  0
M  END
$$$$
Cl[Fe](Cl)Cl
 OpenBabel07182308452D

  4  3  0  0  0  0  0  0  0  0999 V2000
   -0.0326    0.1924    0.0000 Fe  0  0  0  0  0  0  0  0  0  0  0  0
    0.3799    0.9069    0.0000 Cl  0  0  0  0  0  0  0  0  0  0  0  0
    0.3799   -0.5221    0.0000 Cl  0  0  0  0  0  0  0  0  0  0  0  0
   -0.8577    0.1924    0.0000 Cl  0  0  0  0  0  0  0  0  0  0  0  0
  1  2  1  0  0  0  0
  1  3  1  0  0  0  0
  1  4  1  0  0  0  0
M  END
$$$$
CN1CCC[C@H]1C
 OpenBabel07182308452D

  8  8  0  0  1  0  0  0  0  0999 V2000
   -3.0275   -3.9862    0.0000 C   0  0  0  0  0  0  0  0  0  0  0  0
   -1.1949   -2.8912    0.0000 C   0  0  0  0  0  0  0  0  0  0  0  0
   -1.7469   -2.2781    0.0000 C   0  0  0  0  0  0  0  0  0  0  0  0
   -1.6074   -3.6057    0.0000 C   0  0  0  0  0  0  0  0  0  0  0  0
   -3.2151   -2.2012    0.0000 C   0  0  0  0  0  0  0  0  0  0  0  0
   -2.5006   -2.6137    0.0000 C   0  0  1  0  0  0  0  0  0  0  0  0
   -2.4144   -3.4342    0.0000 N   0  0  0  0  0  0  0  0  0  0  0  0
   -2.4574   -1.7898    0.0000 H   0  0  0  0  0  0  0  0  0  0  0  0
  3  2  1  0  0  0  0
  4  2  1  0  0  0  0
  6  3  1  0  0  0  0
  6  5  1  0  0  0  0
  6  7  1  0  0  0  0
  6  8  1  1  0  0  0
  7  1  1  0  0  0  0
  7  4  1  0  0  0  0
M  END
$$$$
Clc1cccc2c1cccc2
 OpenBabel07182308452D

 11 12  0  0  1  0  0  0  0  0999 V2000
   -3.2151    3.5737    0.0000 C   0  0  0  0  0  0  0  0  0  0  0  0
   -0.3572    3.5737    0.0000 C   0  0  0  0  0  0  0  0  0  0  0  0
   -2.5006    3.9862    0.0000 C   0  0  0  0  0  0  0  0  0  0  0  0
   -1.0717    3.9862    0.0000 C   0  0  0  0  0  0  0  0  0  0  0  0
   -3.2151    2.7487    0.0000 C   0  0  0  0  0  0  0  0  0  0  0  0
   -0.3572    2.7487    0.0000 C   0  0  0  0  0  0  0  0  0  0  0  0
   -1.7861    3.5737    0.0000 C   0  0  0  0  0  0  0  0  0  0  0  0
   -2.5006    2.3362    0.0000 C   0  0  0  0  0  0  0  0  0  0  0  0
   -1.0717    2.3362    0.0000 C   0  0  0  0  0  0  0  0  0  0  0  0
   -1.7861    2.7487    0.0000 C   0  0  0  0  0  0  0  0  0  0  0  0
   -2.5006    1.5112    0.0000 Cl  0  0  0  0  0  0  0  0  0  0  0  0
  3  1  2  0  0  0  0
  4  2  2  0  0  0  0
  5  1  1  0  0  0  0
  6  2  1  0  0  0  0
  7  3  1  0  0  0  0
  7  4  1  0  0  0  0
  8  5  2  0  0  0  0
  9  6  2  0  0  0  0
 10  7  2  0  0  0  0
 10  8  1  0  0  0  0
 10  9  1  0  0  0  0
 11  8  1  0  0  0  0
M  END
$$$$
FC=C
 OpenBabel07182308452D

  3  2  0  0  1  0  0  0  0  0999 V2000
    2.5006   -1.3762    0.0000 C   0  0  0  0  0  0  0  0  0  0  0  0
    2.5006   -2.2012    0.0000 C   0  0  0  0  0  0  0  0  0  0  0  0
    3.2151   -2.6137    0.0000 F   0  0  0  0  0  0  0  0  0  0  0  0
  2  1  2  0  0  0  0
  3  2  1  0  0  0  0
M  END
$$$$
Oc1nc2CNCCc2cn1
 OpenBabel07182308452D

 11 12  0  0  1  0  0  0  0  0999 V2000
   -0.3572    0.2737    0.0000 C   0  0  0  0  0  0  0  0  0  0  0  0
   -0.3572    1.0987    0.0000 C   0  0  0  0  0  0  0  0  0  0  0  0
   -1.7861    1.0987    0.0000 C   0  0  0  0  0  0  0  0  0  0  0  0
   -1.0717   -0.1387    0.0000 C   0  0  0  0  0  0  0  0  0  0  0  0
   -1.7861    0.2737    0.0000 C   0  0  0  0  0  0  0  0  0  0  0  0
   -1.0717   -0.9637    0.0000 C   0  0  0  0  0  0  0  0  0  0  0  0
   -2.5006   -0.9637    0.0000 C   0  0  0  0  0  0  0  0  0  0  0  0
   -2.5006   -0.1387    0.0000 N   0  0  0  0  0  0  0  0  0  0  0  0
   -1.7861   -1.3762    0.0000 N   0  0  0  0  0  0  0  0  0  0  0  0
   -1.0717    1.5112    0.0000 N   0  0  0  0  0  0  0  0  0  0  0  0
   -3.2151   -1.3762    0.0000 O   0  0  0  0  0  0  0  0  0  0  0  0
  2  1  1  0  0  0  0
  4  1  1  0  0  0  0
  5  3  1  0  0  0  0
  5  4  2  0  0  0  0
  6  4  1  0  0  0  0
  8  5  1  0  0  0  0
  8  7  2  0  0  0  0
  9  6  2  0  0  0  0
  9  7  1  0  0  0  0
 10  2  1  0  0  0  0
 10  3  1  0  0  0  0
 11  7  1  0  0  0  0
M  END
$$$$
Fc1cnc2c(c1)cnc(=O)[nH]2
 OpenBabel07182308452D

 12 13  0  0  0  0  0  0  0  0999 V2000
   -1.0717   -1.4437    0.0000 N   0  0  0  0  0  0  0  0  0  0  0  0
   -1.7861   -1.0312    0.0000 C   0  0  0  0  0  0  0  0  0  0  0  0
   -2.6066   -0.9450    0.0000 O   0  0  0  0  0  0  0  0  0  0  0  0
   -1.7861   -0.2062    0.0000 N   0  0  0  0  0  0  0  0  0  0  0  0
   -1.0717    0.2062    0.0000 C   0  0  0  0  0  0  0  0  0  0  0  0
   -0.3572   -0.2062    0.0000 C   0  0  0  0  0  0  0  0  0  0  0  0
    0.3572    0.2062    0.0000 C   0  0  0  0  0  0  0  0  0  0  0  0
    1.0717   -0.2062    0.0000 C   0  0  0  0  0  0  0  0  0  0  0  0
    1.7861    0.2062    0.0000 F   0  0  0  0  0  0  0  0  0  0  0  0
    1.0717   -1.0312    0.0000 C   0  0  0  0  0  0  0  0  0  0  0  0
    0.3572   -1.4437    0.0000 N   0  0  0  0  0  0  0  0  0  0  0  0
   -0.3572   -1.0312    0.0000 C   0  0  0  0  0  0  0  0  0  0  0  0
  1  2  1  0  0  0  0
  1 12  1  0  0  0  0
  2  3  2  0  0  0  0
  2  4  1  0  0  0  0
  4  5  2  0  0  0  0
  5  6  1  0  0  0  0
  6  7  2  0  0  0  0
  6 12  1  0  0  0  0
  7  8  1  0  0  0  0
  8  9  1  0  0  0  0
  8 10  2  0  0  0  0
 10 11  1  0  0  0  0
 11 12  2  0  0  0  0
M  END
$$$$
C[C@H]1CNCCN1
 OpenBabel07182308452D

  7  7  0  0  0  0  0  0  0  0999 V2000
   -1.0717    1.0312    0.0000 N   0  0  0  0  0  0  0  0  0  0  0  0
   -0.3572    1.4437    0.0000 C   0  0  0  0  0  0  0  0  0  0  0  0
   -0.3572    2.2687    0.0000 C   0  0  0  0  0  0  0  0  0  0  0  0
   -1.0717    2.6812    0.0000 N   0  0  0  0  0  0  0  0  0  0  0  0
   -1.7861    2.2687    0.0000 C   0  0  0  0  0  0  0  0  0  0  0  0
   -1.7861    1.4437    0.0000 C   0  0  2  0  0  0  0  0  0  0  0  0
   -2.5006    1.0312    0.0000 C   0  0  0  0  0  0  0  0  0  0  0  0
  1  2  1  0  0  0  0
  2  3  1  0  0  0  0
  3  4  1  0  0  0  0
  4  5  1  0  0  0  0
  6  5  1  0  0  0  0
  6  1  1  0  0  0  0
  6  7  1  1  0  0  0
M  END
$$$$
C[C@@H]1CC2=N/C/1=C\c1[n-]c(c(c1)C)/C=C/1\N=C(/C(=c/3\[n-]/c(=C\2)/c(C)c3)/C)[C@H]([C@@H]1C)C
 OpenBabel07182308452D

 34 38  0  0  0  0  0  0  0  0999 V2000
   -3.0036   -2.0639    0.0000 C   0  0  0  0  0  0  0  0  0  0  0  0
   -3.5752   -2.6603    0.0000 H   0  0  0  0  0  0  0  0  0  0  0  0
   -3.5433   -1.4510    0.0000 C   0  0  2  0  0  0  0  0  0  0  0  0
   -3.1243   -0.7448    0.0000 C   0  0  0  0  0  0  0  0  0  0  0  0
   -3.4905    0.0002    0.0000 C   0  0  0  0  0  0  0  0  0  0  0  0
   -3.1359    0.7420    0.0000 C   0  0  0  0  0  0  0  0  0  0  0  0
   -3.4676    1.6287    0.0000 C   0  0  0  0  0  0  0  0  0  0  0  0
   -2.8296    2.1099    0.0000 C   0  0  0  0  0  0  0  0  0  0  0  0
   -2.1416    1.6732    0.0000 C   0  0  0  0  0  0  0  0  0  0  0  0
   -1.3945    2.0819    0.0000 C   0  0  0  0  0  0  0  0  0  0  0  0
   -0.6511    1.7140    0.0000 C   0  0  0  0  0  0  0  0  0  0  0  0
   -0.4725    0.9142    0.0000 N   0  0  0  0  0  0  0  0  0  0  0  0
    0.2779    0.6985    0.0000 C   0  0  0  0  0  0  0  0  0  0  0  0
    0.6699    1.5782    0.0000 C   0  0  2  0  0  0  0  0  0  0  0  0
    0.0598    2.1284    0.0000 C   0  0  2  0  0  0  0  0  0  0  0  0
    0.5405    2.7987    0.0000 C   0  0  0  0  0  0  0  0  0  0  0  0
   -0.2826    2.8800    0.0000 H   0  0  0  0  0  0  0  0  0  0  0  0
    0.9866    1.1085    0.0000 H   0  0  0  0  0  0  0  0  0  0  0  0
    1.2674    2.0751    0.0000 C   0  0  0  0  0  0  0  0  0  0  0  0
    0.6854   -0.0200    0.0000 C   0  0  0  0  0  0  0  0  0  0  0  0
    1.5083   -0.0200    0.0000 C   0  0  0  0  0  0  0  0  0  0  0  0
    0.3237   -0.7667    0.0000 C   0  0  0  0  0  0  0  0  0  0  0  0
   -0.4820   -0.9477    0.0000 N   0  5  0  0  0  0  0  0  0  0  0  0
   -0.5535   -1.7730    0.0000 C   0  0  0  0  0  0  0  0  0  0  0  0
   -1.3854   -2.0749    0.0000 C   0  0  0  0  0  0  0  0  0  0  0  0
   -2.3826   -1.7673    0.0000 C   0  0  0  0  0  0  0  0  0  0  0  0
   -2.3826   -0.9263    0.0000 N   0  0  0  0  0  0  0  0  0  0  0  0
    0.2070   -2.0982    0.0000 C   0  0  0  0  0  0  0  0  0  0  0  0
    0.3924   -2.9075    0.0000 C   0  0  0  0  0  0  0  0  0  0  0  0
    0.7462   -1.4752    0.0000 C   0  0  0  0  0  0  0  0  0  0  0  0
   -2.3351    0.9317    0.0000 N   0  5  0  0  0  0  0  0  0  0  0  0
   -2.9001    2.9809    0.0000 C   0  0  0  0  0  0  0  0  0  0  0  0
   -4.2924   -1.1026    0.0000 C   0  0  0  0  0  0  0  0  0  0  0  0
   -4.2175   -1.9263    0.0000 H   0  0  0  0  0  0  0  0  0  0  0  0
  1  2  1  0  0  0  0
  1 26  1  0  0  0  0
  3  1  1  0  0  0  0
  3 33  1  0  0  0  0
  3 34  1  6  0  0  0
  4  3  1  0  0  0  0
  4 27  1  0  0  0  0
  5  4  2  0  0  0  0
  6  5  1  0  0  0  0
  6 31  1  0  0  0  0
  7  6  2  0  0  0  0
  8  7  1  0  0  0  0
  8 32  1  0  0  0  0
  9  8  2  0  0  0  0
  9 10  1  0  0  0  0
 10 11  2  0  0  0  0
 11 12  1  0  0  0  0
 12 13  2  0  0  0  0
 13 14  1  0  0  0  0
 14 15  1  1  0  0  0
 14 18  1  0  0  0  0
 14 19  1  0  0  0  0
 15 11  1  0  0  0  0
 15 16  1  0  0  0  0
 15 17  1  6  0  0  0
 20 13  1  0  0  0  0
 20 21  1  0  0  0  0
 20 22  2  0  0  0  0
 22 23  1  0  0  0  0
 23 24  1  0  0  0  0
 24 28  1  0  0  0  0
 25 24  2  0  0  0  0
 26 25  1  0  0  0  0
 26 27  2  0  0  0  0
 28 29  1  0  0  0  0
 28 30  2  0  0  0  0
 30 22  1  0  0  0  0
 31  9  1  0  0  0  0
M  CHG  2  23  -1  31  -1
M  END
$$$$
[Pd+2]
 OpenBabel07182308452D

  1  0  0  0  0  0  0  0  0  0999 V2000
   -1.6528    0.0763    0.0000 Pd  0  2  0  0  0 15  0  0  0  0  0  0
M  CHG  1   1   2
M  END
$$$$
C/[NH+]=C/1\C=CC(=C)C(=C1)C
 OpenBabel07182308452D

 10 10  0  0  0  0  0  0  0  0999 V2000
   -1.0374   -2.9370    0.0000 N   0  3  0  0  0  0  0  0  0  0  0  0
   -1.0374    0.3630    0.0000 C   0  0  0  0  0  0  0  0  0  0  0  0
   -1.0374   -0.4620    0.0000 C   0  0  0  0  0  0  0  0  0  0  0  0
   -1.0374   -2.1120    0.0000 C   0  0  0  0  0  0  0  0  0  0  0  0
   -1.7519   -0.8745    0.0000 C   0  0  0  0  0  0  0  0  0  0  0  0
   -1.7519   -1.6995    0.0000 C   0  0  0  0  0  0  0  0  0  0  0  0
   -0.3229   -3.3495    0.0000 C   0  0  0  0  0  0  0  0  0  0  0  0
   -0.3229   -0.8745    0.0000 C   0  0  0  0  0  0  0  0  0  0  0  0
   -0.3229   -1.6995    0.0000 C   0  0  0  0  0  0  0  0  0  0  0  0
   -2.4663   -0.4620    0.0000 C   0  0  0  0  0  0  0  0  0  0  0  0
  1  4  2  0  0  0  0
  1  7  1  0  0  0  0
  2  3  2  0  0  0  0
  3  5  1  0  0  0  0
  3  8  1  0  0  0  0
  4  6  1  0  0  0  0
  4  9  1  0  0  0  0
  5  6  2  0  0  0  0
  5 10  1  0  0  0  0
  8  9  2  0  0  0  0
M  CHG  1   1   1
M  END
$$$$
O=c1ccoc(c1[O-])C
 OpenBabel07182308452D

  9  9  0  0  0  0  0  0  0  0999 V2000
   -3.3509    0.3927    0.0000 O   0  0  0  0  0  0  0  0  0  0  0  0
   -3.3509   -0.4323    0.0000 C   0  0  0  0  0  0  0  0  0  0  0  0
   -2.6388   -0.8407    0.0000 C   0  0  0  0  0  0  0  0  0  0  0  0
   -2.6388    0.8094    0.0000 C   0  0  0  0  0  0  0  0  0  0  0  0
   -1.9268    0.3927    0.0000 C   0  0  0  0  0  0  0  0  0  0  0  0
   -1.9303   -0.4323    0.0000 C   0  0  0  0  0  0  0  0  0  0  0  0
   -1.2214   -0.8456    0.0000 O   0  0  0  0  0  0  0  0  0  0  0  0
   -1.2144    0.8045    0.0000 O   0  5  0  0  0  0  0  0  0  0  0  0
   -2.6467    1.6345    0.0000 C   0  0  0  0  0  0  0  0  0  0  0  0
  1  4  1  0  0  0  0
  1  2  1  0  0  0  0
  2  3  2  0  0  0  0
  3  6  1  0  0  0  0
  4  9  1  0  0  0  0
  5  4  2  0  0  0  0
  5  6  1  0  0  0  0
  5  8  1  0  0  0  0
  6  7  2  0  0  0  0
M  CHG  1   8  -1
M  END
$$$$
O[C@@H]1[C@@H](C)O[C@@H]([C@@H]([C@H]1O)O)O
 OpenBabel07182308452D

 14 14  0  0  0  0  0  0  0  0999 V2000
    0.3268    0.0000    0.0000 O   0  0  0  0  0  0  0  0  0  0  0  0
    1.7558    0.0000    0.0000 O   0  0  0  0  0  0  0  0  0  0  0  0
   -1.1021   -1.6500    0.0000 O   0  0  0  0  0  0  0  0  0  0  0  0
    0.3268   -2.4750    0.0000 O   0  0  0  0  0  0  0  0  0  0  0  0
    1.7558   -1.6500    0.0000 O   0  0  0  0  0  0  0  0  0  0  0  0
   -0.3875   -0.4125    0.0000 C   0  0  1  0  0  0  0  0  0  0  0  0
   -0.3875   -1.2375    0.0000 C   0  0  2  0  0  0  0  0  0  0  0  0
    0.3268   -1.6500    0.0000 C   0  0  1  0  0  0  0  0  0  0  0  0
    1.0413   -1.2375    0.0000 C   0  0  2  0  0  0  0  0  0  0  0  0
    1.0413   -0.4125    0.0000 C   0  0  2  0  0  0  0  0  0  0  0  0
   -1.1021    0.0000    0.0000 C   0  0  0  0  0  0  0  0  0  0  0  0
   -1.9421   -1.1649    0.0000 H   0  0  0  0  0  0  0  0  0  0  0  0
   -0.5132   -2.9600    0.0000 H   0  0  0  0  0  0  0  0  0  0  0  0
    1.7558   -2.6200    0.0000 H   0  0  0  0  0  0  0  0  0  0  0  0
  1  6  1  0  0  0  0
  1 10  1  0  0  0  0
  3 12  1  0  0  0  0
  4 13  1  0  0  0  0
  5 14  1  0  0  0  0
  6  7  1  0  0  0  0
  6 11  1  1  0  0  0
  7  3  1  6  0  0  0
  7  8  1  0  0  0  0
  8  4  1  1  0  0  0
  8  9  1  0  0  0  0
  9  5  1  6  0  0  0
  9 10  1  0  0  0  0
 10  2  1  6  0  0  0
M  END
$$$$
N1CC2CC(C1)N2
 OpenBabel07182308452D

  7  8  0  0  0  0  0  0  0  0999 V2000
    0.3604   -5.0085    0.0000 N   0  0  0  0  0  0  0  0  0  0  0  0
    0.7729   -4.2940    0.0000 C   0  0  3  0  0  0  0  0  0  0  0  0
    0.9516   -5.0085    0.0000 C   0  0  0  0  0  0  0  0  0  0  0  0
    0.7729   -5.7229    0.0000 C   0  0  3  0  0  0  0  0  0  0  0  0
    1.5979   -5.7229    0.0000 C   0  0  0  0  0  0  0  0  0  0  0  0
    2.0104   -5.0085    0.0000 N   0  0  0  0  0  0  0  0  0  0  0  0
    1.5979   -4.2940    0.0000 C   0  0  0  0  0  0  0  0  0  0  0  0
  1  2  1  0  0  0  0
  1  4  1  0  0  0  0
  2  3  1  0  0  0  0
  2  7  1  0  0  0  0
  3  4  1  0  0  0  0
  4  5  1  0  0  0  0
  5  6  1  0  0  0  0
  6  7  1  0  0  0  0
M  END
$$$$
N#Cc1cnn2c1ccc(c2)O
 OpenBabel07182308452D

 12 13  0  0  0  0  0  0  0  0999 V2000
    5.3104   -5.0085    0.0000 C   0  0  0  0  0  0  0  0  0  0  0  0
    5.7229   -4.2940    0.0000 C   0  0  0  0  0  0  0  0  0  0  0  0
    6.5479   -4.2940    0.0000 C   0  0  0  0  0  0  0  0  0  0  0  0
    6.9604   -3.5795    0.0000 O   0  0  0  0  0  0  0  0  0  0  0  0
    6.9604   -5.0085    0.0000 C   0  0  0  0  0  0  0  0  0  0  0  0
    6.5479   -5.7229    0.0000 N   0  0  0  0  0  0  0  0  0  0  0  0
    6.8029   -6.5076    0.0000 N   0  0  0  0  0  0  0  0  0  0  0  0
    6.1354   -6.9925    0.0000 C   0  0  0  0  0  0  0  0  0  0  0  0
    5.4680   -6.5076    0.0000 C   0  0  0  0  0  0  0  0  0  0  0  0
    4.6834   -6.7625    0.0000 C   0  0  0  0  0  0  0  0  0  0  0  0
    3.8988   -7.0174    0.0000 N   0  0  0  0  0  0  0  0  0  0  0  0
    5.7229   -5.7229    0.0000 C   0  0  0  0  0  0  0  0  0  0  0  0
  1  2  2  0  0  0  0
  1 12  1  0  0  0  0
  2  3  1  0  0  0  0
  3  4  1  0  0  0  0
  3  5  2  0  0  0  0
  5  6  1  0  0  0  0
  6  7  1  0  0  0  0
  6 12  1  0  0  0  0
  7  8  2  0  0  0  0
  8  9  1  0  0  0  0
  9 10  1  0  0  0  0
  9 12  2  0  0  0  0
 10 11  3  0  0  0  0
M  END
$$$$
[18F][C@@H]1C[C@@H]2[C@]([C@H]1O)(C)CC[C@H]1[C@H]2CCc2c1ccc(c2)O
 OpenBabel07182308452D

 26 29  0  0  0  0  0  0  0  0999 V2000
    1.0515    1.5056    0.0000 C   0  0  0  0  0  0  0  0  0  0  0  0
    1.0515    0.6806    0.0000 C   0  0  1  0  0  0  0  0  0  0  0  0
    1.0515   -0.1443    0.0000 C   0  0  2  0  0  0  0  0  0  0  0  0
    0.3392   -0.5661    0.0000 C   0  0  1  0  0  0  0  0  0  0  0  0
   -0.3731   -0.1505    0.0000 C   0  0  2  0  0  0  0  0  0  0  0  0
   -0.3731    0.6806    0.0000 C   0  0  0  0  0  0  0  0  0  0  0  0
    0.3392    1.0962    0.0000 C   0  0  0  0  0  0  0  0  0  0  0  0
   -1.0876   -0.5661    0.0000 C   0  0  0  0  0  0  0  0  0  0  0  0
   -1.0876   -1.3973    0.0000 C   0  0  0  0  0  0  0  0  0  0  0  0
   -0.3731   -1.8129    0.0000 C   0  0  0  0  0  0  0  0  0  0  0  0
    0.3392   -1.3973    0.0000 C   0  0  0  0  0  0  0  0  0  0  0  0
   -1.8002   -1.8129    0.0000 C   0  0  0  0  0  0  0  0  0  0  0  0
   -2.5126   -1.3973    0.0000 C   0  0  0  0  0  0  0  0  0  0  0  0
   -2.5126   -0.5661    0.0000 C   0  0  0  0  0  0  0  0  0  0  0  0
   -1.8002   -0.1505    0.0000 C   0  0  0  0  0  0  0  0  0  0  0  0
   -3.2271   -1.8109    0.0000 O   0  0  0  0  0  0  0  0  0  0  0  0
   -0.3731   -0.9755    0.0000 H   0  0  0  0  0  0  0  0  0  0  0  0
    0.3392    0.2588    0.0000 H   0  0  0  0  0  0  0  0  0  0  0  0
    1.8362   -0.3992    0.0000 C   0  0  0  0  0  0  0  0  0  0  0  0
    2.3211    0.2681    0.0000 C   0  0  2  0  0  0  0  0  0  0  0  0
    1.8362    0.9355    0.0000 C   0  0  2  0  0  0  0  0  0  0  0  0
    2.0528    1.8129    0.0000 O   0  0  0  0  0  0  0  0  0  0  0  0
    3.2271    0.5372    0.0000 F   0  0  0  0  0  0  0  0  0  0  0  0
    1.0515   -0.9755    0.0000 H   0  0  0  0  0  0  0  0  0  0  0  0
   -4.0391   -1.3433    0.0000 H   0  0  0  0  0  0  0  0  0  0  0  0
    2.9846    2.0824    0.0000 H   0  0  0  0  0  0  0  0  0  0  0  0
  2  1  1  0  0  0  0
  2  3  1  1  0  0  0
  2  7  1  0  0  0  0
  3  4  1  1  0  0  0
  3 19  1  0  0  0  0
  3 24  1  0  0  0  0
  4  5  1  6  0  0  0
  4 11  1  0  0  0  0
  4 18  1  0  0  0  0
  5  8  1  0  0  0  0
  5 17  1  6  0  0  0
  6  5  1  0  0  0  0
  7  6  1  0  0  0  0
  8  9  2  0  0  0  0
  8 15  1  0  0  0  0
  9 12  1  0  0  0  0
 10  9  1  0  0  0  0
 11 10  1  0  0  0  0
 12 13  2  0  0  0  0
 13 16  1  0  0  0  0
 14 13  1  0  0  0  0
 15 14  2  0  0  0  0
 16 25  1  0  0  0  0
 19 20  1  0  0  0  0
 20 23  1  6  0  0  0
 21  2  1  1  0  0  0
 21 20  1  0  0  0  0
 21 22  1  0  0  0  0
 22 26  1  0  0  0  0
M  ISO  1  23  18
M  END
$$$$
O[C@@H]1CCNC(=O)N1
 OpenBabel07182308452D

 10 10  0  0  1  0  0  0  0  0999 V2000
   -0.7376   -1.4675    0.0000 N   0  0  0  0  0  0  0  0  0  0  0  0
   -1.3507   -2.0195    0.0000 C   0  0  0  0  0  0  0  0  0  0  0  0
   -2.1353   -1.7646    0.0000 C   0  0  0  0  0  0  0  0  0  0  0  0
   -2.3068   -0.9576    0.0000 C   0  0  1  0  0  0  0  0  0  0  0  0
   -3.0915   -0.7027    0.0000 O   0  0  0  0  0  0  0  0  0  0  0  0
   -1.6937   -0.4056    0.0000 N   0  0  0  0  0  0  0  0  0  0  0  0
   -0.9091   -0.6605    0.0000 C   0  0  0  0  0  0  0  0  0  0  0  0
   -0.2960   -0.1085    0.0000 O   0  0  0  0  0  0  0  0  0  0  0  0
   -3.2932    0.2461    0.0000 H   0  0  0  0  0  0  0  0  0  0  0  0
   -1.8984    0.5574    0.0000 H   0  0  0  0  0  0  0  0  0  0  0  0
  1  2  1  0  0  0  0
  1  7  1  0  0  0  0
  2  3  1  0  0  0  0
  4  3  1  0  0  0  0
  4  5  1  1  0  0  0
  4  6  1  0  0  0  0
  5  9  1  0  0  0  0
  6  7  1  0  0  0  0
  6 10  1  0  0  0  0
  7  8  2  0  0  0  0
M  END
$$$$
[H+]
 OpenBabel07182308452D

  1  0  0  0  0  0  0  0  0  0999 V2000
    2.6230    1.6877    0.0000 H   0  3  0  0  0  0  0  0  0  0  0  0
M  CHG  1   1   1
M  END
$$$$
Cc1ncnc(c1)N
 OpenBabel07182308452D

  9  9  0  0  1  0  0  0  0  0999 V2000
    6.0323    2.6779    0.0000 C   0  0  0  0  0  0  0  0  0  0  0  0
    6.7467    2.2654    0.0000 N   0  0  0  0  0  0  0  0  0  0  0  0
    6.7467    1.4403    0.0000 C   0  0  0  0  0  0  0  0  0  0  0  0
    7.4612    1.0279    0.0000 N   0  0  0  0  0  0  0  0  0  0  0  0
    6.0323    1.0279    0.0000 C   0  0  0  0  0  0  0  0  0  0  0  0
    5.3178    1.4403    0.0000 C   0  0  0  0  0  0  0  0  0  0  0  0
    4.6033    1.0279    0.0000 C   0  0  0  0  0  0  0  0  0  0  0  0
    5.3178    2.2654    0.0000 N   0  0  0  0  0  0  0  0  0  0  0  0
    8.3138    1.5202    0.0000 H   0  0  0  0  0  0  0  0  0  0  0  0
  1  2  2  0  0  0  0
  1  8  1  0  0  0  0
  2  3  1  0  0  0  0
  3  4  1  0  0  0  0
  3  5  2  0  0  0  0
  4  9  1  0  0  0  0
  5  6  1  0  0  0  0
  6  7  1  0  0  0  0
  6  8  2  0  0  0  0
M  END
$$$$
Fc1c[nH]nc1
 OpenBabel07182308452D

  6  6  0  0  1  0  0  0  0  0999 V2000
   11.1552    5.7006    0.0000 N   0  0  0  0  0  0  0  0  0  0  0  0
   11.7486    6.2737    0.0000 C   0  0  0  0  0  0  0  0  0  0  0  0
   12.4771    5.8864    0.0000 C   0  0  0  0  0  0  0  0  0  0  0  0
   13.2186    6.2480    0.0000 F   0  0  0  0  0  0  0  0  0  0  0  0
   12.3338    5.0739    0.0000 C   0  0  0  0  0  0  0  0  0  0  0  0
   11.5168    4.9591    0.0000 N   0  0  0  0  0  0  0  0  0  0  0  0
  1  2  1  0  0  0  0
  1  6  1  0  0  0  0
  2  3  2  0  0  0  0
  3  4  1  0  0  0  0
  3  5  1  0  0  0  0
  5  6  2  0  0  0  0
M  END
$$$$
[64Cu+2]
 OpenBabel07182308452D

  1  0  0  0  0  0  0  0  0  0999 V2000
    5.0421   -2.3239    0.0000 Cu  0  2  0  0  0 15  0  0  0  0  0  0
M  ISO  1   1  64
M  CHG  1   1   2
M  END
$$$$
C#C
 OpenBabel07182308452D

  2  1  0  0  0  0  0  0  0  0999 V2000
   -0.4125    0.0000    0.0000 C   0  0  0  0  0  0  0  0  0  0  0  0
    0.4125    0.0000    0.0000 C   0  0  0  0  0  0  0  0  0  0  0  0
  1  2  3  0  0  0  0
M  END
$$$$
O=C1C[C@@H]2C(C1CC2)(C)C
 OpenBabel07182308452D

 11 12  0  0  0  0  0  0  0  0999 V2000
   -0.3659   -0.0320    0.0000 C   0  0  3  0  0  0  0  0  0  0  0  0
   -0.6106   -0.5996    0.0000 C   0  0  0  0  0  0  0  0  0  0  0  0
   -1.2251   -0.7378    0.0000 C   0  0  0  0  0  0  0  0  0  0  0  0
   -1.6627   -0.3002    0.0000 C   0  0  1  0  0  0  0  0  0  0  0  0
   -1.2483   -1.0180    0.0000 C   0  0  0  0  0  0  0  0  0  0  0  0
   -0.4521   -0.8528    0.0000 C   0  0  0  0  0  0  0  0  0  0  0  0
   -1.1197    0.3034    0.0000 C   0  0  0  0  0  0  0  0  0  0  0  0
    0.1598   -0.7592    0.0000 O   0  0  0  0  0  0  0  0  0  0  0  0
   -0.7071    1.0180    0.0000 C   0  0  0  0  0  0  0  0  0  0  0  0
   -1.7872    0.7885    0.0000 C   0  0  0  0  0  0  0  0  0  0  0  0
   -2.4925   -0.2234    0.0000 H   0  0  0  0  0  0  0  0  0  0  0  0
  1  2  1  0  0  0  0
  1  6  1  0  0  0  0
  1  7  1  0  0  0  0
  2  3  1  0  0  0  0
  2  8  2  0  0  0  0
  3  4  1  0  0  0  0
  4  5  1  0  0  0  0
  4  7  1  0  0  0  0
  4 11  1  6  0  0  0
  5  6  1  0  0  0  0
  7  9  1  0  0  0  0
  7 10  1  0  0  0  0
M  END
$$$$
C=C1N(C)c2c(C1(C)C)c1ccccc1cc2
 OpenBabel07182308452D

 17 19  0  0  0  0  0  0  0  0999 V2000
   -2.0457   -1.8620    0.0000 C   0  0  0  0  0  0  0  0  0  0  0  0
   -2.7675   -1.4547    0.0000 C   0  0  0  0  0  0  0  0  0  0  0  0
   -2.0457   -2.7023    0.0000 C   0  0  0  0  0  0  0  0  0  0  0  0
   -1.4386   -1.3251    0.0000 C   0  0  0  0  0  0  0  0  0  0  0  0
   -2.5825   -0.6404    0.0000 N   0  0  0  0  0  0  0  0  0  0  0  0
   -3.4784   -1.8620    0.0000 C   0  0  0  0  0  0  0  0  0  0  0  0
   -2.7675   -3.1095    0.0000 C   0  0  0  0  0  0  0  0  0  0  0  0
   -1.3349   -3.1095    0.0000 C   0  0  0  0  0  0  0  0  0  0  0  0
   -1.7755   -0.5737    0.0000 C   0  0  0  0  0  0  0  0  0  0  0  0
   -0.7278   -0.9069    0.0000 C   0  0  0  0  0  0  0  0  0  0  0  0
   -0.9463   -1.9953    0.0000 C   0  0  0  0  0  0  0  0  0  0  0  0
   -3.1414   -0.0370    0.0000 C   0  0  0  0  0  0  0  0  0  0  0  0
   -3.4784   -2.7023    0.0000 C   0  0  0  0  0  0  0  0  0  0  0  0
   -2.7675   -3.9350    0.0000 C   0  0  0  0  0  0  0  0  0  0  0  0
   -1.3349   -3.9350    0.0000 C   0  0  0  0  0  0  0  0  0  0  0  0
   -1.3720    0.1369    0.0000 C   0  0  0  0  0  0  0  0  0  0  0  0
   -2.0457   -4.3533    0.0000 C   0  0  0  0  0  0  0  0  0  0  0  0
  1  2  1  0  0  0  0
  1  3  2  0  0  0  0
  1  4  1  0  0  0  0
  2  5  1  0  0  0  0
  2  6  2  0  0  0  0
  3  7  1  0  0  0  0
  3  8  1  0  0  0  0
  4  9  1  0  0  0  0
  4 10  1  0  0  0  0
  4 11  1  0  0  0  0
  5 12  1  0  0  0  0
  5  9  1  0  0  0  0
  6 13  1  0  0  0  0
  7 14  1  0  0  0  0
  7 13  2  0  0  0  0
  8 15  2  0  0  0  0
  9 16  2  0  0  0  0
 14 17  2  0  0  0  0
 15 17  1  0  0  0  0
M  END
$$$$
N[C@H]1CC[C@H](N(C1=O)C)C
 OpenBabel07182308452D

 11 11  0  0  1  0  0  0  0  0999 V2000
    9.4383    0.4903    0.0000 C   0  0  0  0  0  0  0  0  0  0  0  0
    8.6222    0.3696    0.0000 C   0  0  2  0  0  0  0  0  0  0  0  0
    8.3187   -0.3976    0.0000 C   0  0  0  0  0  0  0  0  0  0  0  0
    7.5025   -0.5183    0.0000 C   0  0  0  0  0  0  0  0  0  0  0  0
    6.9899    0.1282    0.0000 C   0  0  2  0  0  0  0  0  0  0  0  0
    6.1738    0.0075    0.0000 N   0  0  0  0  0  0  0  0  0  0  0  0
    7.2935    0.8953    0.0000 C   0  0  0  0  0  0  0  0  0  0  0  0
    6.7809    1.5417    0.0000 O   0  0  0  0  0  0  0  0  0  0  0  0
    8.1096    1.0160    0.0000 N   0  0  0  0  0  0  0  0  0  0  0  0
    8.4131    1.7831    0.0000 C   0  0  0  0  0  0  0  0  0  0  0  0
    5.8116   -0.9080    0.0000 H   0  0  0  0  0  0  0  0  0  0  0  0
  2  1  1  6  0  0  0
  2  3  1  0  0  0  0
  2  9  1  0  0  0  0
  3  4  1  0  0  0  0
  5  4  1  0  0  0  0
  5  6  1  6  0  0  0
  5  7  1  0  0  0  0
  6 11  1  0  0  0  0
  7  8  2  0  0  0  0
  7  9  1  0  0  0  0
  9 10  1  0  0  0  0
M  END
$$$$
CC1=CCc2c(N1)c(C)cnc2
 OpenBabel07182308452D

 13 14  0  0  1  0  0  0  0  0999 V2000
    0.0000    2.7224    0.0000 N   0  0  0  0  0  0  0  0  0  0  0  0
    0.7145    2.3099    0.0000 C   0  0  0  0  0  0  0  0  0  0  0  0
    0.7145    1.4849    0.0000 C   0  0  0  0  0  0  0  0  0  0  0  0
    0.0000    1.0724    0.0000 C   0  0  0  0  0  0  0  0  0  0  0  0
   -0.7144    1.4849    0.0000 C   0  0  0  0  0  0  0  0  0  0  0  0
   -1.4288    1.0724    0.0000 C   0  0  0  0  0  0  0  0  0  0  0  0
   -2.1433    1.4849    0.0000 N   0  0  0  0  0  0  0  0  0  0  0  0
   -2.1433    2.3099    0.0000 C   0  0  0  0  0  0  0  0  0  0  0  0
   -1.4288    2.7224    0.0000 C   0  0  0  0  0  0  0  0  0  0  0  0
   -0.7144    2.3099    0.0000 C   0  0  0  0  0  0  0  0  0  0  0  0
   -1.4288    3.5475    0.0000 C   0  0  0  0  0  0  0  0  0  0  0  0
    1.4289    2.7224    0.0000 C   0  0  0  0  0  0  0  0  0  0  0  0
   -0.0000    3.7069    0.0000 H   0  0  0  0  0  0  0  0  0  0  0  0
  1  2  1  0  0  0  0
  1 10  1  0  0  0  0
  1 13  1  0  0  0  0
  2  3  2  0  0  0  0
  2 12  1  0  0  0  0
  3  4  1  0  0  0  0
  4  5  1  0  0  0  0
  5  6  1  0  0  0  0
  5 10  2  0  0  0  0
  6  7  2  0  0  0  0
  7  8  1  0  0  0  0
  8  9  2  0  0  0  0
  9 10  1  0  0  0  0
  9 11  1  0  0  0  0
M  END
$$$$
O[C@@H]1Cc2ccccc2S(=O)(=O)CC1(C)C
 OpenBabel07182308452D

 17 18  0  0  1  0  0  0  0  0999 V2000
    0.9545    2.4613    0.0000 S   0  0  0  0  0  0  0  0  0  0  0  0
    0.3030    1.9457    0.0000 C   0  0  0  0  0  0  0  0  0  0  0  0
    0.3030    1.1207    0.0000 C   0  0  0  0  0  0  0  0  0  0  0  0
    0.9497    0.6052    0.0000 C   0  0  0  0  0  0  0  0  0  0  0  0
    1.7607    0.7880    0.0000 C   0  0  2  0  0  0  0  0  0  0  0  0
    2.1216    1.5332    0.0000 C   0  0  0  0  0  0  0  0  0  0  0  0
    1.7607    2.2832    0.0000 C   0  0  0  0  0  0  0  0  0  0  0  0
    2.5621    2.3020    0.0000 C   0  0  0  0  0  0  0  0  0  0  0  0
    3.0027    1.5332    0.0000 C   0  0  0  0  0  0  0  0  0  0  0  0
    2.3418    0.2021    0.0000 O   0  0  0  0  0  0  0  0  0  0  0  0
   -0.4094    0.7083    0.0000 C   0  0  0  0  0  0  0  0  0  0  0  0
   -1.1219    1.1207    0.0000 C   0  0  0  0  0  0  0  0  0  0  0  0
   -1.1219    1.9457    0.0000 C   0  0  0  0  0  0  0  0  0  0  0  0
   -0.4000    2.3581    0.0000 C   0  0  0  0  0  0  0  0  0  0  0  0
    0.4255    3.0944    0.0000 O   0  0  0  0  0  0  0  0  0  0  0  0
    1.1538    3.2618    0.0000 O   0  0  0  0  0  0  0  0  0  0  0  0
    2.0869   -0.7338    0.0000 H   0  0  0  0  0  0  0  0  0  0  0  0
  2  1  1  0  0  0  0
  3  2  1  0  0  0  0
  4  3  1  0  0  0  0
  5  4  1  0  0  0  0
  5  6  1  0  0  0  0
  5 10  1  6  0  0  0
  6  7  1  0  0  0  0
  7  1  1  0  0  0  0
  8  6  1  0  0  0  0
  9  6  1  0  0  0  0
 10 17  1  0  0  0  0
 11  3  2  0  0  0  0
 12 11  1  0  0  0  0
 13 12  2  0  0  0  0
 13 14  1  0  0  0  0
 14  2  2  0  0  0  0
 15  1  2  0  0  0  0
 16  1  2  0  0  0  0
M  END
$$$$
C1C[NH+]2CCN1CC2
 OpenBabel07182308452D

  8  9  0  0  1  0  0  0  0  0999 V2000
   -3.3361   -2.0242    0.0000 N   0  3  3  0  0  0  0  0  0  0  0  0
   -3.3361   -2.8492    0.0000 C   0  0  0  0  0  0  0  0  0  0  0  0
   -4.0505   -3.2618    0.0000 C   0  0  0  0  0  0  0  0  0  0  0  0
   -4.7650   -2.8494    0.0000 N   0  0  3  0  0  0  0  0  0  0  0  0
   -4.7651   -2.0244    0.0000 C   0  0  0  0  0  0  0  0  0  0  0  0
   -4.0506   -1.6118    0.0000 C   0  0  0  0  0  0  0  0  0  0  0  0
   -4.2455   -2.3619    0.0000 C   0  0  0  0  0  0  0  0  0  0  0  0
   -3.6672   -2.4439    0.0000 C   0  0  0  0  0  0  0  0  0  0  0  0
  2  1  1  0  0  0  0
  3  2  1  0  0  0  0
  4  3  1  0  0  0  0
  5  4  1  0  0  0  0
  5  6  1  0  0  0  0
  6  1  1  0  0  0  0
  7  4  1  0  0  0  0
  7  8  1  0  0  0  0
  8  1  1  0  0  0  0
M  CHG  1   1   1
M  END
$$$$
Oc1ccc2c(c1)S(=O)(=O)NC(CN2)(C)C
 OpenBabel07182308452D

 17 18  0  0  1  0  0  0  0  0999 V2000
   -2.8769    1.2776    0.0000 O   0  0  0  0  0  0  0  0  0  0  0  0
   -2.5189    0.5343    0.0000 S   0  0  0  0  0  0  0  0  0  0  0  0
   -3.3232    0.3507    0.0000 N   0  0  0  0  0  0  0  0  0  0  0  0
   -3.6811   -0.3925    0.0000 C   0  0  0  0  0  0  0  0  0  0  0  0
   -4.3262   -0.9068    0.0000 C   0  0  0  0  0  0  0  0  0  0  0  0
   -4.3262    0.1217    0.0000 C   0  0  0  0  0  0  0  0  0  0  0  0
   -3.3232   -1.1358    0.0000 C   0  0  0  0  0  0  0  0  0  0  0  0
   -2.5189   -1.3194    0.0000 N   0  0  0  0  0  0  0  0  0  0  0  0
   -1.8739   -0.8050    0.0000 C   0  0  0  0  0  0  0  0  0  0  0  0
   -1.1594   -1.2175    0.0000 C   0  0  0  0  0  0  0  0  0  0  0  0
   -0.4449   -0.8050    0.0000 C   0  0  0  0  0  0  0  0  0  0  0  0
   -0.4449    0.0199    0.0000 C   0  0  0  0  0  0  0  0  0  0  0  0
    0.2694    0.4324    0.0000 O   0  0  0  0  0  0  0  0  0  0  0  0
   -1.1594    0.4324    0.0000 C   0  0  0  0  0  0  0  0  0  0  0  0
   -1.8739    0.0199    0.0000 C   0  0  0  0  0  0  0  0  0  0  0  0
   -1.8739    1.0487    0.0000 O   0  0  0  0  0  0  0  0  0  0  0  0
   -3.9592    1.1482    0.0000 H   0  0  0  0  0  0  0  0  0  0  0  0
  1  2  2  0  0  0  0
  2  3  1  0  0  0  0
  2 15  1  0  0  0  0
  2 16  2  0  0  0  0
  3  4  1  0  0  0  0
  3 17  1  0  0  0  0
  4  5  1  0  0  0  0
  4  6  1  0  0  0  0
  4  7  1  0  0  0  0
  8  7  1  0  0  0  0
  9  8  1  0  0  0  0
  9 10  2  0  0  0  0
 10 11  1  0  0  0  0
 12 11  2  0  0  0  0
 12 13  1  0  0  0  0
 14 12  1  0  0  0  0
 15 14  2  0  0  0  0
 15  9  1  0  0  0  0
M  END
$$$$
N#Cc1cccc(=O)n1C
 OpenBabel07182308452D

 10 10  0  0  1  0  0  0  0  0999 V2000
   -2.8579   -1.6500    0.0000 C   0  0  0  0  0  0  0  0  0  0  0  0
   -2.8579   -2.4750    0.0000 C   0  0  0  0  0  0  0  0  0  0  0  0
   -3.5724   -2.8875    0.0000 C   0  0  0  0  0  0  0  0  0  0  0  0
   -4.2868   -2.4750    0.0000 C   0  0  0  0  0  0  0  0  0  0  0  0
   -5.0013   -2.8875    0.0000 C   0  0  0  0  0  0  0  0  0  0  0  0
   -5.7158   -3.3000    0.0000 N   0  0  0  0  0  0  0  0  0  0  0  0
   -4.2868   -1.6500    0.0000 N   0  0  0  0  0  0  0  0  0  0  0  0
   -5.0013   -1.2375    0.0000 C   0  0  0  0  0  0  0  0  0  0  0  0
   -3.5724   -1.2375    0.0000 C   0  0  0  0  0  0  0  0  0  0  0  0
   -3.5724   -0.4125    0.0000 O   0  0  0  0  0  0  0  0  0  0  0  0
  1  2  2  0  0  0  0
  1  9  1  0  0  0  0
  2  3  1  0  0  0  0
  3  4  2  0  0  0  0
  4  5  1  0  0  0  0
  4  7  1  0  0  0  0
  5  6  3  0  0  0  0
  7  8  1  0  0  0  0
  7  9  1  0  0  0  0
  9 10  2  0  0  0  0
M  END
$$$$
Clc1ccc2c(c1)ccc(=O)[nH]2
 OpenBabel07182308452D

 13 14  0  0  1  0  0  0  0  0999 V2000
   -0.7145   -1.2375    0.0000 C   0  0  0  0  0  0  0  0  0  0  0  0
    0.0000   -1.6500    0.0000 C   0  0  0  0  0  0  0  0  0  0  0  0
    0.7145   -1.2375    0.0000 C   0  0  0  0  0  0  0  0  0  0  0  0
    0.7145   -0.4125    0.0000 C   0  0  0  0  0  0  0  0  0  0  0  0
    0.0000   -0.0000    0.0000 N   0  0  0  0  0  0  0  0  0  0  0  0
   -0.7145   -0.4125    0.0000 C   0  0  0  0  0  0  0  0  0  0  0  0
   -1.4289    0.0000    0.0000 O   0  0  0  0  0  0  0  0  0  0  0  0
    1.4289   -0.0000    0.0000 C   0  0  0  0  0  0  0  0  0  0  0  0
    2.1434   -0.4125    0.0000 C   0  0  0  0  0  0  0  0  0  0  0  0
    2.1434   -1.2375    0.0000 C   0  0  0  0  0  0  0  0  0  0  0  0
    2.8579   -1.6500    0.0000 Cl  0  0  0  0  0  0  0  0  0  0  0  0
    1.4289   -1.6500    0.0000 C   0  0  0  0  0  0  0  0  0  0  0  0
    0.0000    0.9845    0.0000 H   0  0  0  0  0  0  0  0  0  0  0  0
  1  2  2  0  0  0  0
  1  6  1  0  0  0  0
  2  3  1  0  0  0  0
  3  4  2  0  0  0  0
  3 12  1  0  0  0  0
  4  5  1  0  0  0  0
  4  8  1  0  0  0  0
  5  6  1  0  0  0  0
  5 13  1  0  0  0  0
  6  7  2  0  0  0  0
  8  9  2  0  0  0  0
  9 10  1  0  0  0  0
 10 11  1  0  0  0  0
 10 12  2  0  0  0  0
M  END
$$$$
Nc1cccc(c1)N
 OpenBabel07182308452D

 10 10  0  0  0  0  0  0  0  0999 V2000
    0.7478    4.1626    0.0000 C   0  0  0  0  0  0  0  0  0  0  0  0
    0.1957    3.5496    0.0000 C   0  0  0  0  0  0  0  0  0  0  0  0
    0.4507    2.7649    0.0000 N   0  0  0  0  0  0  0  0  0  0  0  0
   -0.6112    3.7211    0.0000 C   0  0  0  0  0  0  0  0  0  0  0  0
   -0.8662    4.5057    0.0000 C   0  0  0  0  0  0  0  0  0  0  0  0
   -1.6731    4.6772    0.0000 N   0  0  0  0  0  0  0  0  0  0  0  0
   -0.3141    5.1188    0.0000 C   0  0  0  0  0  0  0  0  0  0  0  0
    0.4928    4.9473    0.0000 C   0  0  0  0  0  0  0  0  0  0  0  0
    1.4137    2.5602    0.0000 H   0  0  0  0  0  0  0  0  0  0  0  0
   -1.9773    5.6135    0.0000 H   0  0  0  0  0  0  0  0  0  0  0  0
  1  2  2  0  0  0  0
  1  8  1  0  0  0  0
  2  3  1  0  0  0  0
  2  4  1  0  0  0  0
  3  9  1  0  0  0  0
  4  5  2  0  0  0  0
  5  6  1  0  0  0  0
  5  7  1  0  0  0  0
  6 10  1  0  0  0  0
  7  8  2  0  0  0  0
M  END
$$$$
Cl[201Tl]
 OpenBabel07182308452D

  2  1  0  0  0  0  0  0  0  0999 V2000
   -0.4125   -0.0033    0.0000 Tl  0  0  0  0  0  0  0  0  0  0  0  0
    0.4125    0.0033    0.0000 Cl  0  0  0  0  0  0  0  0  0  0  0  0
  2  1  1  0  0  0  0
M  ISO  1   1 201
M  END
$$$$
O=C1CC[C@@H]2[C@]1(C)CC[C@H]1[C@H]2CC=C2[C@]1(C)CCCC2
 OpenBabel07182308452D

 23 26  0  0  0  0  0  0  0  0999 V2000
   -0.2790   -1.3446    0.0000 C   0  0  0  0  0  0  0  0  0  0  0  0
   -0.2790   -0.5195    0.0000 C   0  0  0  0  0  0  0  0  0  0  0  0
    0.4359   -0.1091    0.0000 C   0  0  0  0  0  0  0  0  0  0  0  0
    0.4359   -1.7592    0.0000 C   0  0  0  0  0  0  0  0  0  0  0  0
    1.1510   -1.3446    0.0000 C   0  0  0  0  0  0  0  0  0  0  0  0
    1.8661   -1.7592    0.0000 C   0  0  0  0  0  0  0  0  0  0  0  0
    2.5812   -1.3446    0.0000 C   0  0  0  0  0  0  0  0  0  0  0  0
    2.5812   -0.5195    0.0000 C   0  0  1  0  0  0  0  0  0  0  0  0
    3.2962   -0.1091    0.0000 C   0  0  2  0  0  0  0  0  0  0  0  0
    4.0792   -0.3610    0.0000 C   0  0  0  0  0  0  0  0  0  0  0  0
    4.5652    0.3054    0.0000 C   0  0  0  0  0  0  0  0  0  0  0  0
    4.0792    0.9721    0.0000 C   0  0  0  0  0  0  0  0  0  0  0  0
    3.2962    0.7159    0.0000 C   0  0  2  0  0  0  0  0  0  0  0  0
    3.2962    1.5410    0.0000 C   0  0  0  0  0  0  0  0  0  0  0  0
    2.5812    1.1305    0.0000 C   0  0  0  0  0  0  0  0  0  0  0  0
    1.8661    0.7159    0.0000 C   0  0  0  0  0  0  0  0  0  0  0  0
    1.8661   -0.1091    0.0000 C   0  0  2  0  0  0  0  0  0  0  0  0
    1.1510   -0.5195    0.0000 C   0  0  1  0  0  0  0  0  0  0  0  0
    1.1510    0.3054    0.0000 C   0  0  0  0  0  0  0  0  0  0  0  0
    4.3353    1.7592    0.0000 O   0  0  0  0  0  0  0  0  0  0  0  0
    1.8661   -0.9341    0.0000 H   0  0  0  0  0  0  0  0  0  0  0  0
    2.5812    0.3054    0.0000 H   0  0  0  0  0  0  0  0  0  0  0  0
    3.2962   -0.9341    0.0000 H   0  0  0  0  0  0  0  0  0  0  0  0
  1  2  1  0  0  0  0
  1  4  1  0  0  0  0
  2  3  1  0  0  0  0
  3 18  1  0  0  0  0
  4  5  1  0  0  0  0
  5  6  2  0  0  0  0
  5 18  1  0  0  0  0
  6  7  1  0  0  0  0
  7  8  1  0  0  0  0
  8  9  1  6  0  0  0
  8 22  1  0  0  0  0
  9 10  1  0  0  0  0
  9 13  1  6  0  0  0
  9 23  1  0  0  0  0
 10 11  1  0  0  0  0
 11 12  1  0  0  0  0
 12 13  1  0  0  0  0
 12 20  2  0  0  0  0
 13 14  1  1  0  0  0
 13 15  1  0  0  0  0
 15 16  1  0  0  0  0
 16 17  1  0  0  0  0
 17  8  1  1  0  0  0
 17 21  1  0  0  0  0
 18 17  1  6  0  0  0
 18 19  1  0  0  0  0
M  END
$$$$
O=c1nc(N)[nH]c2c1N[C@@H]1[C@H](N2)O[C@H]2[C@@H](C1(O)O)OP(=O)(OC2)O
 OpenBabel07182308452D

 36 39  0  0  0  0  0  0  0  0999 V2000
    2.8089   -0.6188    0.0000 O   0  0  0  0  0  0  0  0  0  0  0  0
    2.8089    0.2061    0.0000 P   0  0  3  0  0  0  0  0  0  0  0  0
    2.0944    0.6186    0.0000 O   0  0  0  0  0  0  0  0  0  0  0  0
    1.3799    0.2061    0.0000 C   0  0  1  0  0  0  0  0  0  0  0  0
    1.3799   -0.6188    0.0000 C   0  0  1  0  0  0  0  0  0  0  0  0
    2.0944   -1.0313    0.0000 C   0  0  0  0  0  0  0  0  0  0  0  0
    0.6654   -1.0312    0.0000 O   0  0  0  0  0  0  0  0  0  0  0  0
   -0.0490   -0.6187    0.0000 C   0  0  2  0  0  0  0  0  0  0  0  0
   -0.0489    0.2062    0.0000 C   0  0  2  0  0  0  0  0  0  0  0  0
    0.6655    0.6187    0.0000 C   0  0  0  0  0  0  0  0  0  0  0  0
    1.1958    1.2507    0.0000 O   0  0  0  0  0  0  0  0  0  0  0  0
    0.1352    1.2507    0.0000 O   0  0  0  0  0  0  0  0  0  0  0  0
   -0.7634    0.6187    0.0000 N   0  0  0  0  0  0  0  0  0  0  0  0
   -1.4779    0.2063    0.0000 C   0  0  0  0  0  0  0  0  0  0  0  0
   -1.4779   -0.6186    0.0000 C   0  0  0  0  0  0  0  0  0  0  0  0
   -0.7634   -1.0312    0.0000 N   0  0  0  0  0  0  0  0  0  0  0  0
   -2.1924   -1.0311    0.0000 N   0  0  0  0  0  0  0  0  0  0  0  0
   -2.9068   -0.6186    0.0000 C   0  0  0  0  0  0  0  0  0  0  0  0
   -2.9068    0.2063    0.0000 N   0  0  0  0  0  0  0  0  0  0  0  0
   -2.1923    0.6188    0.0000 C   0  0  0  0  0  0  0  0  0  0  0  0
   -2.1923    1.4438    0.0000 O   0  0  0  0  0  0  0  0  0  0  0  0
   -3.6213   -1.0311    0.0000 N   0  0  0  0  0  0  0  0  0  0  0  0
   -0.0489    1.0312    0.0000 H   0  0  0  0  0  0  0  0  0  0  0  0
   -0.0490   -1.4437    0.0000 H   0  0  0  0  0  0  0  0  0  0  0  0
    1.3799   -1.4438    0.0000 H   0  0  0  0  0  0  0  0  0  0  0  0
    1.3800    1.0311    0.0000 H   0  0  0  0  0  0  0  0  0  0  0  0
    3.6213    0.0629    0.0000 O   0  0  0  0  0  0  0  0  0  0  0  0
    3.0911    0.9814    0.0000 O   0  0  0  0  0  0  0  0  0  0  0  0
    2.1186    1.0880    0.0000 H   0  0  0  0  0  0  0  0  0  0  0  0
    0.4557    2.1312    0.0000 H   0  0  0  0  0  0  0  0  0  0  0  0
   -0.7633    1.6032    0.0000 H   0  0  0  0  0  0  0  0  0  0  0  0
   -0.7634   -2.0157    0.0000 H   0  0  0  0  0  0  0  0  0  0  0  0
   -2.1924   -2.0156    0.0000 H   0  0  0  0  0  0  0  0  0  0  0  0
   -4.4739   -0.5388    0.0000 H   0  0  0  0  0  0  0  0  0  0  0  0
   -3.6213   -2.0156    0.0000 H   0  0  0  0  0  0  0  0  0  0  0  0
    3.9531   -0.8486    0.0000 H   0  0  0  0  0  0  0  0  0  0  0  0
  1  2  1  0  0  0  0
  1  6  1  0  0  0  0
  2  3  1  0  0  0  0
  2 27  1  0  0  0  0
  2 28  2  0  0  0  0
  3  4  1  0  0  0  0
  4  5  1  6  0  0  0
  4 10  1  0  0  0  0
  4 26  1  0  0  0  0
  5  6  1  0  0  0  0
  5  7  1  0  0  0  0
  5 25  1  6  0  0  0
  8  7  1  0  0  0  0
  8  9  1  6  0  0  0
  8 16  1  0  0  0  0
  8 24  1  0  0  0  0
  9 13  1  0  0  0  0
  9 23  1  6  0  0  0
 10  9  1  0  0  0  0
 10 11  1  0  0  0  0
 10 12  1  0  0  0  0
 11 29  1  0  0  0  0
 12 30  1  0  0  0  0
 13 14  1  0  0  0  0
 13 31  1  0  0  0  0
 14 15  2  0  0  0  0
 14 20  1  0  0  0  0
 15 16  1  0  0  0  0
 15 17  1  0  0  0  0
 16 32  1  0  0  0  0
 17 33  1  0  0  0  0
 18 17  1  0  0  0  0
 18 22  1  0  0  0  0
 19 18  2  0  0  0  0
 20 19  1  0  0  0  0
 20 21  2  0  0  0  0
 22 34  1  0  0  0  0
 22 35  1  0  0  0  0
 27 36  1  0  0  0  0
M  END
$$$$
C([2H])(N)([2H])[2H]
 OpenBabel07182308452D

  6  5  0  0  0  0  0  0  0  0999 V2000
   -5.7158   -0.2211    0.0000 H   0  0  0  0  0  0  0  0  0  0  0  0
   -5.3033   -0.9355    0.0000 C   0  0  0  0  0  0  0  0  0  0  0  0
   -6.0177   -1.3480    0.0000 H   0  0  0  0  0  0  0  0  0  0  0  0
   -4.8908   -1.6500    0.0000 H   0  0  0  0  0  0  0  0  0  0  0  0
   -4.5888   -0.5230    0.0000 N   0  0  0  0  0  0  0  0  0  0  0  0
   -3.7362   -1.0153    0.0000 H   0  0  0  0  0  0  0  0  0  0  0  0
  1  2  1  0  0  0  0
  2  3  1  0  0  0  0
  2  4  1  0  0  0  0
  2  5  1  0  0  0  0
  5  6  1  0  0  0  0
M  ISO  3   1   2   3   2   4   2
M  END
$$$$
Nc1cnnc(c1)N
 OpenBabel07182308452D

 10 10  0  0  0  0  0  0  0  0999 V2000
   -3.8743    0.7145    0.0000 C   0  0  0  0  0  0  0  0  0  0  0  0
   -3.1599    0.3020    0.0000 C   0  0  0  0  0  0  0  0  0  0  0  0
   -3.1599   -0.5230    0.0000 N   0  0  0  0  0  0  0  0  0  0  0  0
   -2.4454    0.7145    0.0000 C   0  0  0  0  0  0  0  0  0  0  0  0
   -2.4454    1.5395    0.0000 C   0  0  0  0  0  0  0  0  0  0  0  0
   -1.7309    1.9520    0.0000 N   0  0  0  0  0  0  0  0  0  0  0  0
   -3.1599    1.9520    0.0000 N   0  0  0  0  0  0  0  0  0  0  0  0
   -3.8743    1.5395    0.0000 N   0  0  0  0  0  0  0  0  0  0  0  0
   -4.0125   -1.0153    0.0000 H   0  0  0  0  0  0  0  0  0  0  0  0
   -1.7309    2.9365    0.0000 H   0  0  0  0  0  0  0  0  0  0  0  0
  1  2  2  0  0  0  0
  1  8  1  0  0  0  0
  2  3  1  0  0  0  0
  2  4  1  0  0  0  0
  3  9  1  0  0  0  0
  4  5  2  0  0  0  0
  5  6  1  0  0  0  0
  5  7  1  0  0  0  0
  6 10  1  0  0  0  0
  7  8  2  0  0  0  0
M  END
$$$$
O=C1NCC[C@H]1C
 OpenBabel07182308452D

  9  9  0  0  0  0  0  0  0  0999 V2000
    3.1772    2.1600    0.0000 N   0  0  0  0  0  0  0  0  0  0  0  0
    2.3926    1.9050    0.0000 C   0  0  0  0  0  0  0  0  0  0  0  0
    2.3926    1.0800    0.0000 C   0  0  1  0  0  0  0  0  0  0  0  0
    3.1772    0.8251    0.0000 C   0  0  0  0  0  0  0  0  0  0  0  0
    3.6621    1.4925    0.0000 C   0  0  0  0  0  0  0  0  0  0  0  0
    1.7251    2.3899    0.0000 O   0  0  0  0  0  0  0  0  0  0  0  0
    1.7251    0.5951    0.0000 C   0  0  0  0  0  0  0  0  0  0  0  0
    2.3877    0.4214    0.0000 H   0  0  0  0  0  0  0  0  0  0  0  0
    3.4814    3.0963    0.0000 H   0  0  0  0  0  0  0  0  0  0  0  0
  1  2  1  0  0  0  0
  1  5  1  0  0  0  0
  1  9  1  0  0  0  0
  2  3  1  0  0  0  0
  2  6  2  0  0  0  0
  3  4  1  0  0  0  0
  3  7  1  0  0  0  0
  3  8  1  6  0  0  0
  4  5  1  0  0  0  0
M  END
$$$$
NCC#N
 OpenBabel07182308452D

  5  4  0  0  0  0  0  0  0  0999 V2000
    1.7251   -0.2298    0.0000 C   0  0  0  0  0  0  0  0  0  0  0  0
    2.4788   -0.5654    0.0000 C   0  0  0  0  0  0  0  0  0  0  0  0
    3.2325   -0.9009    0.0000 N   0  0  0  0  0  0  0  0  0  0  0  0
    1.0332   -0.6791    0.0000 N   0  0  0  0  0  0  0  0  0  0  0  0
    1.0847   -1.6622    0.0000 H   0  0  0  0  0  0  0  0  0  0  0  0
  1  2  1  0  0  0  0
  1  4  1  0  0  0  0
  2  3  3  0  0  0  0
  4  5  1  0  0  0  0
M  END
$$$$
c1ccc2c(c1)[nH]nc2
 OpenBabel07182308452D

 10 11  0  0  0  0  0  0  0  0999 V2000
   -1.5594    1.4338    0.0000 C   0  0  0  0  0  0  0  0  0  0  0  0
   -1.6895    2.1878    0.0000 C   0  0  0  0  0  0  0  0  0  0  0  0
   -1.1030    2.6756    0.0000 C   0  0  0  0  0  0  0  0  0  0  0  0
   -0.3848    2.4114    0.0000 C   0  0  0  0  0  0  0  0  0  0  0  0
   -0.2536    1.6614    0.0000 C   0  0  0  0  0  0  0  0  0  0  0  0
   -0.8382    1.1683    0.0000 C   0  0  0  0  0  0  0  0  0  0  0  0
    0.5002    1.5543    0.0000 C   0  0  0  0  0  0  0  0  0  0  0  0
    0.8348    2.2382    0.0000 N   0  0  0  0  0  0  0  0  0  0  0  0
    0.2880    2.7678    0.0000 N   0  0  0  0  0  0  0  0  0  0  0  0
    0.4265    3.7425    0.0000 H   0  0  0  0  0  0  0  0  0  0  0  0
  1  6  1  0  0  0  0
  2  1  2  0  0  0  0
  3  2  1  0  0  0  0
  4  3  2  0  0  0  0
  4  9  1  0  0  0  0
  5  4  1  0  0  0  0
  5  7  1  0  0  0  0
  6  5  2  0  0  0  0
  7  8  2  0  0  0  0
  8  9  1  0  0  0  0
  9 10  1  0  0  0  0
M  END
$$$$
O1CCOB1
 OpenBabel07182308452D

  7  7  0  0  1  0  0  0  0  0999 V2000
   -1.6067    0.1313    0.0000 B   0  0  0  0  0  0  0  0  0  0  0  0
   -1.6930   -0.6892    0.0000 O   0  0  0  0  0  0  0  0  0  0  0  0
   -2.5000   -0.8606    0.0000 C   0  0  0  0  0  0  0  0  0  0  0  0
   -2.9125   -0.1462    0.0000 C   0  0  0  0  0  0  0  0  0  0  0  0
   -2.3605    0.4668    0.0000 O   0  0  0  0  0  0  0  0  0  0  0  0
   -3.5800   -0.6311    0.0000 H   0  0  0  0  0  0  0  0  0  0  0  0
   -2.2451   -1.6453    0.0000 H   0  0  0  0  0  0  0  0  0  0  0  0
  1  2  1  0  0  0  0
  1  5  1  0  0  0  0
  2  3  1  0  0  0  0
  3  4  1  0  0  0  0
  3  7  1  0  0  0  0
  4  6  1  0  0  0  0
  5  4  1  0  0  0  0
M  END
$$$$
Clc1cc(Cl)c2c(c1O)nc(n(c2=O)C)C
 OpenBabel07182308452D

 17 18  0  0  0  0  0  0  0  0999 V2000
   -1.4289   -1.6500    0.0000 C   0  0  0  0  0  0  0  0  0  0  0  0
   -0.7145   -1.2375    0.0000 C   0  0  0  0  0  0  0  0  0  0  0  0
    0.0000   -1.6500    0.0000 N   0  0  0  0  0  0  0  0  0  0  0  0
    0.7145   -1.2375    0.0000 C   0  0  0  0  0  0  0  0  0  0  0  0
    0.7145   -0.4125    0.0000 C   0  0  0  0  0  0  0  0  0  0  0  0
    0.0000   -0.0000    0.0000 C   0  0  0  0  0  0  0  0  0  0  0  0
    0.0000    0.8250    0.0000 O   0  0  0  0  0  0  0  0  0  0  0  0
   -0.7145   -0.4125    0.0000 N   0  0  0  0  0  0  0  0  0  0  0  0
   -1.4289    0.0000    0.0000 C   0  0  0  0  0  0  0  0  0  0  0  0
    1.4289   -0.0000    0.0000 C   0  0  0  0  0  0  0  0  0  0  0  0
    1.4289    0.8250    0.0000 Cl  0  0  0  0  0  0  0  0  0  0  0  0
    2.1434   -0.4125    0.0000 C   0  0  0  0  0  0  0  0  0  0  0  0
    2.1434   -1.2375    0.0000 C   0  0  0  0  0  0  0  0  0  0  0  0
    2.8579   -1.6500    0.0000 Cl  0  0  0  0  0  0  0  0  0  0  0  0
    1.4289   -1.6500    0.0000 C   0  0  0  0  0  0  0  0  0  0  0  0
    1.4289   -2.4750    0.0000 O   0  0  0  0  0  0  0  0  0  0  0  0
    0.6174   -2.9435    0.0000 H   0  0  0  0  0  0  0  0  0  0  0  0
  1  2  1  0  0  0  0
  2  3  2  0  0  0  0
  2  8  1  0  0  0  0
  3  4  1  0  0  0  0
  4  5  2  0  0  0  0
  4 15  1  0  0  0  0
  5  6  1  0  0  0  0
  5 10  1  0  0  0  0
  6  7  2  0  0  0  0
  6  8  1  0  0  0  0
  8  9  1  0  0  0  0
 10 11  1  0  0  0  0
 10 12  2  0  0  0  0
 12 13  1  0  0  0  0
 13 14  1  0  0  0  0
 13 15  2  0  0  0  0
 15 16  1  0  0  0  0
 16 17  1  0  0  0  0
M  END
$$$$
Fc1c(C)cccc1F
 OpenBabel07182308452D

  9  9  0  0  0  0  0  0  0  0999 V2000
    6.9246    2.3479    0.0000 C   0  0  0  0  0  0  0  0  0  0  0  0
    7.6391    1.9354    0.0000 C   0  0  0  0  0  0  0  0  0  0  0  0
    8.3536    2.3479    0.0000 C   0  0  0  0  0  0  0  0  0  0  0  0
    9.0681    1.9354    0.0000 C   0  0  0  0  0  0  0  0  0  0  0  0
    9.0681    1.1104    0.0000 C   0  0  0  0  0  0  0  0  0  0  0  0
    8.3536    0.6979    0.0000 C   0  0  0  0  0  0  0  0  0  0  0  0
    8.3536   -0.1271    0.0000 F   0  0  0  0  0  0  0  0  0  0  0  0
    7.6391    1.1104    0.0000 C   0  0  0  0  0  0  0  0  0  0  0  0
    6.9246    0.6979    0.0000 F   0  0  0  0  0  0  0  0  0  0  0  0
  1  2  1  0  0  0  0
  2  3  2  0  0  0  0
  2  8  1  0  0  0  0
  3  4  1  0  0  0  0
  4  5  2  0  0  0  0
  5  6  1  0  0  0  0
  6  7  1  0  0  0  0
  6  8  2  0  0  0  0
  8  9  1  0  0  0  0
M  END
$$$$
O=c1[nH]c(=O)c2c([nH]1)csc2
 OpenBabel07182308452D

 12 13  0  0  0  0  0  0  0  0999 V2000
    3.3523    1.9354    0.0000 N   0  0  0  0  0  0  0  0  0  0  0  0
    3.3523    1.1104    0.0000 C   0  0  0  0  0  0  0  0  0  0  0  0
    4.0668    0.6979    0.0000 O   0  0  0  0  0  0  0  0  0  0  0  0
    2.6378    0.6979    0.0000 N   0  0  0  0  0  0  0  0  0  0  0  0
    1.9233    1.1104    0.0000 C   0  0  0  0  0  0  0  0  0  0  0  0
    1.1387    0.8555    0.0000 C   0  0  0  0  0  0  0  0  0  0  0  0
    0.6538    1.5229    0.0000 S   0  0  0  0  0  0  0  0  0  0  0  0
    1.1387    2.1904    0.0000 C   0  0  0  0  0  0  0  0  0  0  0  0
    1.9233    1.9354    0.0000 C   0  0  0  0  0  0  0  0  0  0  0  0
    2.6378    2.3479    0.0000 C   0  0  0  0  0  0  0  0  0  0  0  0
    2.6378    3.1729    0.0000 O   0  0  0  0  0  0  0  0  0  0  0  0
    2.6378   -0.2866    0.0000 H   0  0  0  0  0  0  0  0  0  0  0  0
  1  2  1  0  0  0  0
  1 10  1  0  0  0  0
  2  3  2  0  0  0  0
  2  4  1  0  0  0  0
  4  5  1  0  0  0  0
  4 12  1  0  0  0  0
  5  6  2  0  0  0  0
  5  9  1  0  0  0  0
  6  7  1  0  0  0  0
  7  8  1  0  0  0  0
  8  9  2  0  0  0  0
  9 10  1  0  0  0  0
 10 11  2  0  0  0  0
M  END
$$$$
CN1CCNCCN(Cc2nc(C1)ccc2)C
 OpenBabel07182308452D

 17 18  0  0  0  0  0  0  0  0999 V2000
   -0.3491    0.8060    0.0000 N   0  0  0  0  0  0  0  0  0  0  0  0
    0.0771    0.0996    0.0000 C   0  0  0  0  0  0  0  0  0  0  0  0
    0.9019    0.1154    0.0000 C   0  0  0  0  0  0  0  0  0  0  0  0
    1.3006    0.8377    0.0000 N   0  0  0  0  0  0  0  0  0  0  0  0
    2.0070    1.2639    0.0000 C   0  0  0  0  0  0  0  0  0  0  0  0
    1.9912    2.0887    0.0000 C   0  0  0  0  0  0  0  0  0  0  0  0
    2.5632    2.6832    0.0000 C   0  0  0  0  0  0  0  0  0  0  0  0
    2.3344    3.4758    0.0000 C   0  0  0  0  0  0  0  0  0  0  0  0
    1.5335    3.6740    0.0000 C   0  0  0  0  0  0  0  0  0  0  0  0
    0.8427    3.1938    0.0000 C   0  0  0  0  0  0  0  0  0  0  0  0
    0.0179    3.1779    0.0000 C   0  0  0  0  0  0  0  0  0  0  0  0
   -0.3808    2.4556    0.0000 N   0  0  0  0  0  0  0  0  0  0  0  0
   -1.0872    2.0295    0.0000 C   0  0  0  0  0  0  0  0  0  0  0  0
   -1.0713    1.2046    0.0000 C   0  0  0  0  0  0  0  0  0  0  0  0
   -0.9753    3.0277    0.0000 C   0  0  0  0  0  0  0  0  0  0  0  0
    1.2689    2.4874    0.0000 N   0  0  0  0  0  0  0  0  0  0  0  0
    1.8951    0.2657    0.0000 C   0  0  0  0  0  0  0  0  0  0  0  0
  1  2  1  0  0  0  0
  1 14  1  0  0  0  0
  2  3  1  0  0  0  0
  3  4  1  0  0  0  0
  4  5  1  0  0  0  0
  4 17  1  0  0  0  0
  5  6  1  0  0  0  0
  6  7  2  0  0  0  0
  6 16  1  0  0  0  0
  7  8  1  0  0  0  0
  8  9  2  0  0  0  0
  9 10  1  0  0  0  0
 10 11  1  0  0  0  0
 10 16  2  0  0  0  0
 11 12  1  0  0  0  0
 12 13  1  0  0  0  0
 12 15  1  0  0  0  0
 13 14  1  0  0  0  0
M  END
$$$$
O=C1CCCCCN1
 OpenBabel07182308452D

  8  8  0  0  0  0  0  0  0  0999 V2000
   10.4266   -8.5585    0.0000 N   0  0  0  0  0  0  0  0  0  0  0  0
   11.1082   -8.0937    0.0000 C   0  0  0  0  0  0  0  0  0  0  0  0
   11.8965   -8.3369    0.0000 C   0  0  0  0  0  0  0  0  0  0  0  0
   12.1980   -9.1049    0.0000 C   0  0  0  0  0  0  0  0  0  0  0  0
   11.7855   -9.8194    0.0000 C   0  0  0  0  0  0  0  0  0  0  0  0
   10.9697   -9.9423    0.0000 C   0  0  0  0  0  0  0  0  0  0  0  0
   10.3649   -9.3812    0.0000 C   0  0  0  0  0  0  0  0  0  0  0  0
    9.5969   -9.6826    0.0000 O   0  0  0  0  0  0  0  0  0  0  0  0
  1  2  1  0  0  0  0
  1  7  1  0  0  0  0
  2  3  1  0  0  0  0
  3  4  1  0  0  0  0
  4  5  1  0  0  0  0
  5  6  1  0  0  0  0
  6  7  1  0  0  0  0
  7  8  2  0  0  0  0
M  END
$$$$
[129Xe]
 OpenBabel07182308452D

  1  0  0  0  0  0  0  0  0  0999 V2000
    0.0000    0.0000    0.0000 Xe  0  0  0  0  0  0  0  0  0  0  0  0
M  ISO  1   1 129
M  END
$$$$
